*SPEF "ieee 1481-1999"
*DESIGN "sr"
*DATE "11:11:11 Fri 11 11, 1111"
*VENDOR "OpenRCX"
*PROGRAM "Parallel Extraction"
*VERSION "1.0"
*DESIGN_FLOW "NAME_SCOPE LOCAL" "PIN_CAP NONE"
*DIVIDER /
*DELIMITER :
*BUS_DELIMITER []
*T_UNIT 1 NS
*C_UNIT 1 PF
*R_UNIT 1 OHM
*L_UNIT 1 HENRY

*NAME_MAP
*3 data[0]
*4 data[1]
*5 data[2]
*6 data[3]
*7 data[4]
*8 data[5]
*9 data[6]
*10 net11
*11 reset
*12 sclk
*13 sdi
*14 ss
*15 _00_
*16 _01_
*17 _02_
*18 _03_
*19 _04_
*20 _05_
*21 _06_
*22 _07_
*23 _08_
*24 _09_
*25 _10_
*26 _11_
*27 _12_
*28 _13_
*29 clknet_0_sclk
*30 clknet_1_0__leaf_sclk
*31 clknet_1_1__leaf_sclk
*32 net1
*33 net10
*34 net12
*35 net13
*36 net14
*37 net15
*38 net16
*39 net17
*40 net2
*41 net3
*42 net4
*43 net5
*44 net6
*45 net7
*46 net8
*47 net9
*48 FILLER_0_0_113
*49 FILLER_0_0_117
*50 FILLER_0_0_124
*51 FILLER_0_0_136
*52 FILLER_0_0_147
*53 FILLER_0_0_159
*54 FILLER_0_0_21
*55 FILLER_0_0_27
*56 FILLER_0_0_35
*57 FILLER_0_0_57
*58 FILLER_0_0_82
*59 FILLER_0_0_85
*60 FILLER_0_0_9
*61 FILLER_0_0_96
*62 FILLER_0_10_109
*63 FILLER_0_10_121
*64 FILLER_0_10_133
*65 FILLER_0_10_139
*66 FILLER_0_10_141
*67 FILLER_0_10_15
*68 FILLER_0_10_153
*69 FILLER_0_10_161
*70 FILLER_0_10_27
*71 FILLER_0_10_29
*72 FILLER_0_10_3
*73 FILLER_0_10_41
*74 FILLER_0_10_53
*75 FILLER_0_10_65
*76 FILLER_0_10_77
*77 FILLER_0_10_83
*78 FILLER_0_10_85
*79 FILLER_0_10_97
*80 FILLER_0_11_105
*81 FILLER_0_11_111
*82 FILLER_0_11_113
*83 FILLER_0_11_125
*84 FILLER_0_11_137
*85 FILLER_0_11_149
*86 FILLER_0_11_15
*87 FILLER_0_11_161
*88 FILLER_0_11_27
*89 FILLER_0_11_3
*90 FILLER_0_11_39
*91 FILLER_0_11_51
*92 FILLER_0_11_55
*93 FILLER_0_11_57
*94 FILLER_0_11_69
*95 FILLER_0_11_81
*96 FILLER_0_11_93
*97 FILLER_0_12_109
*98 FILLER_0_12_121
*99 FILLER_0_12_133
*100 FILLER_0_12_139
*101 FILLER_0_12_141
*102 FILLER_0_12_15
*103 FILLER_0_12_153
*104 FILLER_0_12_161
*105 FILLER_0_12_27
*106 FILLER_0_12_29
*107 FILLER_0_12_3
*108 FILLER_0_12_41
*109 FILLER_0_12_53
*110 FILLER_0_12_65
*111 FILLER_0_12_77
*112 FILLER_0_12_83
*113 FILLER_0_12_85
*114 FILLER_0_12_97
*115 FILLER_0_13_105
*116 FILLER_0_13_111
*117 FILLER_0_13_113
*118 FILLER_0_13_125
*119 FILLER_0_13_137
*120 FILLER_0_13_149
*121 FILLER_0_13_15
*122 FILLER_0_13_161
*123 FILLER_0_13_27
*124 FILLER_0_13_3
*125 FILLER_0_13_39
*126 FILLER_0_13_51
*127 FILLER_0_13_55
*128 FILLER_0_13_57
*129 FILLER_0_13_69
*130 FILLER_0_13_81
*131 FILLER_0_13_93
*132 FILLER_0_14_109
*133 FILLER_0_14_121
*134 FILLER_0_14_133
*135 FILLER_0_14_139
*136 FILLER_0_14_141
*137 FILLER_0_14_15
*138 FILLER_0_14_153
*139 FILLER_0_14_161
*140 FILLER_0_14_27
*141 FILLER_0_14_29
*142 FILLER_0_14_3
*143 FILLER_0_14_41
*144 FILLER_0_14_53
*145 FILLER_0_14_65
*146 FILLER_0_14_77
*147 FILLER_0_14_83
*148 FILLER_0_14_85
*149 FILLER_0_14_97
*150 FILLER_0_15_105
*151 FILLER_0_15_111
*152 FILLER_0_15_113
*153 FILLER_0_15_125
*154 FILLER_0_15_137
*155 FILLER_0_15_149
*156 FILLER_0_15_15
*157 FILLER_0_15_161
*158 FILLER_0_15_27
*159 FILLER_0_15_3
*160 FILLER_0_15_39
*161 FILLER_0_15_51
*162 FILLER_0_15_55
*163 FILLER_0_15_57
*164 FILLER_0_15_69
*165 FILLER_0_15_81
*166 FILLER_0_15_93
*167 FILLER_0_16_109
*168 FILLER_0_16_121
*169 FILLER_0_16_133
*170 FILLER_0_16_139
*171 FILLER_0_16_141
*172 FILLER_0_16_15
*173 FILLER_0_16_153
*174 FILLER_0_16_161
*175 FILLER_0_16_27
*176 FILLER_0_16_29
*177 FILLER_0_16_3
*178 FILLER_0_16_41
*179 FILLER_0_16_53
*180 FILLER_0_16_65
*181 FILLER_0_16_77
*182 FILLER_0_16_83
*183 FILLER_0_16_85
*184 FILLER_0_16_97
*185 FILLER_0_17_105
*186 FILLER_0_17_111
*187 FILLER_0_17_113
*188 FILLER_0_17_125
*189 FILLER_0_17_137
*190 FILLER_0_17_149
*191 FILLER_0_17_15
*192 FILLER_0_17_161
*193 FILLER_0_17_27
*194 FILLER_0_17_3
*195 FILLER_0_17_39
*196 FILLER_0_17_51
*197 FILLER_0_17_55
*198 FILLER_0_17_57
*199 FILLER_0_17_69
*200 FILLER_0_17_81
*201 FILLER_0_17_93
*202 FILLER_0_18_109
*203 FILLER_0_18_121
*204 FILLER_0_18_133
*205 FILLER_0_18_139
*206 FILLER_0_18_141
*207 FILLER_0_18_15
*208 FILLER_0_18_153
*209 FILLER_0_18_161
*210 FILLER_0_18_27
*211 FILLER_0_18_29
*212 FILLER_0_18_3
*213 FILLER_0_18_41
*214 FILLER_0_18_53
*215 FILLER_0_18_65
*216 FILLER_0_18_77
*217 FILLER_0_18_83
*218 FILLER_0_18_85
*219 FILLER_0_18_97
*220 FILLER_0_19_105
*221 FILLER_0_19_111
*222 FILLER_0_19_113
*223 FILLER_0_19_125
*224 FILLER_0_19_137
*225 FILLER_0_19_149
*226 FILLER_0_19_15
*227 FILLER_0_19_161
*228 FILLER_0_19_27
*229 FILLER_0_19_3
*230 FILLER_0_19_39
*231 FILLER_0_19_51
*232 FILLER_0_19_55
*233 FILLER_0_19_57
*234 FILLER_0_19_69
*235 FILLER_0_19_81
*236 FILLER_0_19_93
*237 FILLER_0_1_107
*238 FILLER_0_1_111
*239 FILLER_0_1_121
*240 FILLER_0_1_133
*241 FILLER_0_1_145
*242 FILLER_0_1_15
*243 FILLER_0_1_157
*244 FILLER_0_1_27
*245 FILLER_0_1_3
*246 FILLER_0_1_57
*247 FILLER_0_20_109
*248 FILLER_0_20_121
*249 FILLER_0_20_133
*250 FILLER_0_20_139
*251 FILLER_0_20_141
*252 FILLER_0_20_15
*253 FILLER_0_20_153
*254 FILLER_0_20_161
*255 FILLER_0_20_27
*256 FILLER_0_20_29
*257 FILLER_0_20_3
*258 FILLER_0_20_41
*259 FILLER_0_20_53
*260 FILLER_0_20_65
*261 FILLER_0_20_77
*262 FILLER_0_20_83
*263 FILLER_0_20_85
*264 FILLER_0_20_97
*265 FILLER_0_21_105
*266 FILLER_0_21_111
*267 FILLER_0_21_113
*268 FILLER_0_21_125
*269 FILLER_0_21_137
*270 FILLER_0_21_149
*271 FILLER_0_21_15
*272 FILLER_0_21_161
*273 FILLER_0_21_27
*274 FILLER_0_21_3
*275 FILLER_0_21_39
*276 FILLER_0_21_51
*277 FILLER_0_21_55
*278 FILLER_0_21_57
*279 FILLER_0_21_69
*280 FILLER_0_21_81
*281 FILLER_0_21_93
*282 FILLER_0_22_109
*283 FILLER_0_22_121
*284 FILLER_0_22_133
*285 FILLER_0_22_139
*286 FILLER_0_22_141
*287 FILLER_0_22_15
*288 FILLER_0_22_153
*289 FILLER_0_22_161
*290 FILLER_0_22_27
*291 FILLER_0_22_29
*292 FILLER_0_22_3
*293 FILLER_0_22_41
*294 FILLER_0_22_53
*295 FILLER_0_22_65
*296 FILLER_0_22_77
*297 FILLER_0_22_83
*298 FILLER_0_22_85
*299 FILLER_0_22_97
*300 FILLER_0_23_105
*301 FILLER_0_23_111
*302 FILLER_0_23_113
*303 FILLER_0_23_125
*304 FILLER_0_23_137
*305 FILLER_0_23_149
*306 FILLER_0_23_15
*307 FILLER_0_23_161
*308 FILLER_0_23_27
*309 FILLER_0_23_3
*310 FILLER_0_23_39
*311 FILLER_0_23_51
*312 FILLER_0_23_55
*313 FILLER_0_23_57
*314 FILLER_0_23_69
*315 FILLER_0_23_81
*316 FILLER_0_23_93
*317 FILLER_0_24_109
*318 FILLER_0_24_121
*319 FILLER_0_24_133
*320 FILLER_0_24_139
*321 FILLER_0_24_141
*322 FILLER_0_24_15
*323 FILLER_0_24_153
*324 FILLER_0_24_161
*325 FILLER_0_24_27
*326 FILLER_0_24_29
*327 FILLER_0_24_3
*328 FILLER_0_24_41
*329 FILLER_0_24_53
*330 FILLER_0_24_65
*331 FILLER_0_24_77
*332 FILLER_0_24_83
*333 FILLER_0_24_85
*334 FILLER_0_24_97
*335 FILLER_0_25_105
*336 FILLER_0_25_111
*337 FILLER_0_25_113
*338 FILLER_0_25_125
*339 FILLER_0_25_137
*340 FILLER_0_25_149
*341 FILLER_0_25_15
*342 FILLER_0_25_161
*343 FILLER_0_25_27
*344 FILLER_0_25_3
*345 FILLER_0_25_39
*346 FILLER_0_25_51
*347 FILLER_0_25_55
*348 FILLER_0_25_57
*349 FILLER_0_25_69
*350 FILLER_0_25_81
*351 FILLER_0_25_93
*352 FILLER_0_26_109
*353 FILLER_0_26_121
*354 FILLER_0_26_133
*355 FILLER_0_26_139
*356 FILLER_0_26_141
*357 FILLER_0_26_15
*358 FILLER_0_26_153
*359 FILLER_0_26_161
*360 FILLER_0_26_27
*361 FILLER_0_26_29
*362 FILLER_0_26_3
*363 FILLER_0_26_41
*364 FILLER_0_26_53
*365 FILLER_0_26_65
*366 FILLER_0_26_77
*367 FILLER_0_26_83
*368 FILLER_0_26_85
*369 FILLER_0_26_97
*370 FILLER_0_27_105
*371 FILLER_0_27_11
*372 FILLER_0_27_110
*373 FILLER_0_27_113
*374 FILLER_0_27_125
*375 FILLER_0_27_137
*376 FILLER_0_27_141
*377 FILLER_0_27_153
*378 FILLER_0_27_160
*379 FILLER_0_27_19
*380 FILLER_0_27_27
*381 FILLER_0_27_29
*382 FILLER_0_27_3
*383 FILLER_0_27_41
*384 FILLER_0_27_53
*385 FILLER_0_27_57
*386 FILLER_0_27_69
*387 FILLER_0_27_81
*388 FILLER_0_27_85
*389 FILLER_0_27_97
*390 FILLER_0_2_115
*391 FILLER_0_2_127
*392 FILLER_0_2_139
*393 FILLER_0_2_141
*394 FILLER_0_2_15
*395 FILLER_0_2_153
*396 FILLER_0_2_161
*397 FILLER_0_2_27
*398 FILLER_0_2_29
*399 FILLER_0_2_3
*400 FILLER_0_2_80
*401 FILLER_0_2_85
*402 FILLER_0_2_91
*403 FILLER_0_3_110
*404 FILLER_0_3_113
*405 FILLER_0_3_125
*406 FILLER_0_3_137
*407 FILLER_0_3_149
*408 FILLER_0_3_15
*409 FILLER_0_3_161
*410 FILLER_0_3_27
*411 FILLER_0_3_3
*412 FILLER_0_3_39
*413 FILLER_0_3_55
*414 FILLER_0_3_65
*415 FILLER_0_4_104
*416 FILLER_0_4_116
*417 FILLER_0_4_128
*418 FILLER_0_4_141
*419 FILLER_0_4_15
*420 FILLER_0_4_153
*421 FILLER_0_4_161
*422 FILLER_0_4_27
*423 FILLER_0_4_29
*424 FILLER_0_4_3
*425 FILLER_0_4_41
*426 FILLER_0_4_65
*427 FILLER_0_4_82
*428 FILLER_0_4_85
*429 FILLER_0_4_93
*430 FILLER_0_5_105
*431 FILLER_0_5_111
*432 FILLER_0_5_113
*433 FILLER_0_5_125
*434 FILLER_0_5_137
*435 FILLER_0_5_149
*436 FILLER_0_5_15
*437 FILLER_0_5_161
*438 FILLER_0_5_27
*439 FILLER_0_5_3
*440 FILLER_0_5_39
*441 FILLER_0_5_53
*442 FILLER_0_5_57
*443 FILLER_0_5_69
*444 FILLER_0_5_81
*445 FILLER_0_5_93
*446 FILLER_0_6_109
*447 FILLER_0_6_121
*448 FILLER_0_6_133
*449 FILLER_0_6_139
*450 FILLER_0_6_141
*451 FILLER_0_6_15
*452 FILLER_0_6_153
*453 FILLER_0_6_161
*454 FILLER_0_6_27
*455 FILLER_0_6_29
*456 FILLER_0_6_3
*457 FILLER_0_6_41
*458 FILLER_0_6_53
*459 FILLER_0_6_65
*460 FILLER_0_6_77
*461 FILLER_0_6_83
*462 FILLER_0_6_85
*463 FILLER_0_6_97
*464 FILLER_0_7_105
*465 FILLER_0_7_111
*466 FILLER_0_7_113
*467 FILLER_0_7_125
*468 FILLER_0_7_137
*469 FILLER_0_7_149
*470 FILLER_0_7_15
*471 FILLER_0_7_161
*472 FILLER_0_7_27
*473 FILLER_0_7_3
*474 FILLER_0_7_39
*475 FILLER_0_7_51
*476 FILLER_0_7_55
*477 FILLER_0_7_57
*478 FILLER_0_7_69
*479 FILLER_0_7_81
*480 FILLER_0_7_93
*481 FILLER_0_8_109
*482 FILLER_0_8_121
*483 FILLER_0_8_133
*484 FILLER_0_8_139
*485 FILLER_0_8_141
*486 FILLER_0_8_15
*487 FILLER_0_8_153
*488 FILLER_0_8_161
*489 FILLER_0_8_27
*490 FILLER_0_8_29
*491 FILLER_0_8_3
*492 FILLER_0_8_41
*493 FILLER_0_8_53
*494 FILLER_0_8_65
*495 FILLER_0_8_77
*496 FILLER_0_8_83
*497 FILLER_0_8_85
*498 FILLER_0_8_97
*499 FILLER_0_9_105
*500 FILLER_0_9_111
*501 FILLER_0_9_113
*502 FILLER_0_9_125
*503 FILLER_0_9_137
*504 FILLER_0_9_149
*505 FILLER_0_9_15
*506 FILLER_0_9_161
*507 FILLER_0_9_27
*508 FILLER_0_9_3
*509 FILLER_0_9_39
*510 FILLER_0_9_51
*511 FILLER_0_9_55
*512 FILLER_0_9_57
*513 FILLER_0_9_69
*514 FILLER_0_9_81
*515 FILLER_0_9_93
*516 PHY_EDGE_ROW_0_Left_28
*517 PHY_EDGE_ROW_0_Right_0
*518 PHY_EDGE_ROW_10_Left_38
*519 PHY_EDGE_ROW_10_Right_10
*520 PHY_EDGE_ROW_11_Left_39
*521 PHY_EDGE_ROW_11_Right_11
*522 PHY_EDGE_ROW_12_Left_40
*523 PHY_EDGE_ROW_12_Right_12
*524 PHY_EDGE_ROW_13_Left_41
*525 PHY_EDGE_ROW_13_Right_13
*526 PHY_EDGE_ROW_14_Left_42
*527 PHY_EDGE_ROW_14_Right_14
*528 PHY_EDGE_ROW_15_Left_43
*529 PHY_EDGE_ROW_15_Right_15
*530 PHY_EDGE_ROW_16_Left_44
*531 PHY_EDGE_ROW_16_Right_16
*532 PHY_EDGE_ROW_17_Left_45
*533 PHY_EDGE_ROW_17_Right_17
*534 PHY_EDGE_ROW_18_Left_46
*535 PHY_EDGE_ROW_18_Right_18
*536 PHY_EDGE_ROW_19_Left_47
*537 PHY_EDGE_ROW_19_Right_19
*538 PHY_EDGE_ROW_1_Left_29
*539 PHY_EDGE_ROW_1_Right_1
*540 PHY_EDGE_ROW_20_Left_48
*541 PHY_EDGE_ROW_20_Right_20
*542 PHY_EDGE_ROW_21_Left_49
*543 PHY_EDGE_ROW_21_Right_21
*544 PHY_EDGE_ROW_22_Left_50
*545 PHY_EDGE_ROW_22_Right_22
*546 PHY_EDGE_ROW_23_Left_51
*547 PHY_EDGE_ROW_23_Right_23
*548 PHY_EDGE_ROW_24_Left_52
*549 PHY_EDGE_ROW_24_Right_24
*550 PHY_EDGE_ROW_25_Left_53
*551 PHY_EDGE_ROW_25_Right_25
*552 PHY_EDGE_ROW_26_Left_54
*553 PHY_EDGE_ROW_26_Right_26
*554 PHY_EDGE_ROW_27_Left_55
*555 PHY_EDGE_ROW_27_Right_27
*556 PHY_EDGE_ROW_2_Left_30
*557 PHY_EDGE_ROW_2_Right_2
*558 PHY_EDGE_ROW_3_Left_31
*559 PHY_EDGE_ROW_3_Right_3
*560 PHY_EDGE_ROW_4_Left_32
*561 PHY_EDGE_ROW_4_Right_4
*562 PHY_EDGE_ROW_5_Left_33
*563 PHY_EDGE_ROW_5_Right_5
*564 PHY_EDGE_ROW_6_Left_34
*565 PHY_EDGE_ROW_6_Right_6
*566 PHY_EDGE_ROW_7_Left_35
*567 PHY_EDGE_ROW_7_Right_7
*568 PHY_EDGE_ROW_8_Left_36
*569 PHY_EDGE_ROW_8_Right_8
*570 PHY_EDGE_ROW_9_Left_37
*571 PHY_EDGE_ROW_9_Right_9
*572 TAP_TAPCELL_ROW_0_56
*573 TAP_TAPCELL_ROW_0_57
*574 TAP_TAPCELL_ROW_0_58
*575 TAP_TAPCELL_ROW_0_59
*576 TAP_TAPCELL_ROW_0_60
*577 TAP_TAPCELL_ROW_10_83
*578 TAP_TAPCELL_ROW_10_84
*579 TAP_TAPCELL_ROW_10_85
*580 TAP_TAPCELL_ROW_11_86
*581 TAP_TAPCELL_ROW_11_87
*582 TAP_TAPCELL_ROW_12_88
*583 TAP_TAPCELL_ROW_12_89
*584 TAP_TAPCELL_ROW_12_90
*585 TAP_TAPCELL_ROW_13_91
*586 TAP_TAPCELL_ROW_13_92
*587 TAP_TAPCELL_ROW_14_93
*588 TAP_TAPCELL_ROW_14_94
*589 TAP_TAPCELL_ROW_14_95
*590 TAP_TAPCELL_ROW_15_96
*591 TAP_TAPCELL_ROW_15_97
*592 TAP_TAPCELL_ROW_16_100
*593 TAP_TAPCELL_ROW_16_98
*594 TAP_TAPCELL_ROW_16_99
*595 TAP_TAPCELL_ROW_17_101
*596 TAP_TAPCELL_ROW_17_102
*597 TAP_TAPCELL_ROW_18_103
*598 TAP_TAPCELL_ROW_18_104
*599 TAP_TAPCELL_ROW_18_105
*600 TAP_TAPCELL_ROW_19_106
*601 TAP_TAPCELL_ROW_19_107
*602 TAP_TAPCELL_ROW_1_61
*603 TAP_TAPCELL_ROW_1_62
*604 TAP_TAPCELL_ROW_20_108
*605 TAP_TAPCELL_ROW_20_109
*606 TAP_TAPCELL_ROW_20_110
*607 TAP_TAPCELL_ROW_21_111
*608 TAP_TAPCELL_ROW_21_112
*609 TAP_TAPCELL_ROW_22_113
*610 TAP_TAPCELL_ROW_22_114
*611 TAP_TAPCELL_ROW_22_115
*612 TAP_TAPCELL_ROW_23_116
*613 TAP_TAPCELL_ROW_23_117
*614 TAP_TAPCELL_ROW_24_118
*615 TAP_TAPCELL_ROW_24_119
*616 TAP_TAPCELL_ROW_24_120
*617 TAP_TAPCELL_ROW_25_121
*618 TAP_TAPCELL_ROW_25_122
*619 TAP_TAPCELL_ROW_26_123
*620 TAP_TAPCELL_ROW_26_124
*621 TAP_TAPCELL_ROW_26_125
*622 TAP_TAPCELL_ROW_27_126
*623 TAP_TAPCELL_ROW_27_127
*624 TAP_TAPCELL_ROW_27_128
*625 TAP_TAPCELL_ROW_27_129
*626 TAP_TAPCELL_ROW_27_130
*627 TAP_TAPCELL_ROW_2_63
*628 TAP_TAPCELL_ROW_2_64
*629 TAP_TAPCELL_ROW_2_65
*630 TAP_TAPCELL_ROW_3_66
*631 TAP_TAPCELL_ROW_3_67
*632 TAP_TAPCELL_ROW_4_68
*633 TAP_TAPCELL_ROW_4_69
*634 TAP_TAPCELL_ROW_4_70
*635 TAP_TAPCELL_ROW_5_71
*636 TAP_TAPCELL_ROW_5_72
*637 TAP_TAPCELL_ROW_6_73
*638 TAP_TAPCELL_ROW_6_74
*639 TAP_TAPCELL_ROW_6_75
*640 TAP_TAPCELL_ROW_7_76
*641 TAP_TAPCELL_ROW_7_77
*642 TAP_TAPCELL_ROW_8_78
*643 TAP_TAPCELL_ROW_8_79
*644 TAP_TAPCELL_ROW_8_80
*645 TAP_TAPCELL_ROW_9_81
*646 TAP_TAPCELL_ROW_9_82
*647 _14_
*648 _15_
*649 _16_
*650 _17_
*651 _18_
*652 _19_
*653 _20_
*654 _21_
*655 _22_
*656 _23_
*657 _24_
*658 _25_
*659 _26_
*660 _27_
*661 _28_
*662 _29_
*663 _30_
*664 _31_
*665 _32_
*666 _33_
*667 _34_
*668 clkbuf_0_sclk
*669 clkbuf_1_0__f_sclk
*670 clkbuf_1_1__f_sclk
*671 hold1
*672 hold2
*673 hold3
*674 hold4
*675 hold5
*676 hold6
*677 input1
*678 input2
*679 input3
*680 output10
*681 output4
*682 output5
*683 output6
*684 output7
*685 output8
*686 output9
*687 sr_11

*PORTS
data[0] O
data[1] O
data[2] O
data[3] O
data[4] O
data[5] O
data[6] O
data[7] O
reset I
sclk I
sdi I
ss I

*D_NET *3 0.000875958
*CONN
*P data[0] O
*I *681:X O *D sky130_fd_sc_hd__clkbuf_4
*CAP
1 data[0] 0.000437979
2 *681:X 0.000437979
*RES
1 *681:X data[0] 46.9693 
*END

*D_NET *4 0.00118547
*CONN
*P data[1] O
*I *682:X O *D sky130_fd_sc_hd__clkbuf_4
*CAP
1 data[1] 0.000508141
2 *682:X 0.000508141
3 data[1] *681:A 0.000144501
4 data[1] *42:8 2.46906e-05
*RES
1 *682:X data[1] 48.3986 
*END

*D_NET *5 0.00303337
*CONN
*P data[2] O
*I *683:X O *D sky130_fd_sc_hd__clkbuf_4
*CAP
1 data[2] 0.00044055
2 *683:X 0.000817287
3 *5:10 0.00125784
4 data[2] *661:RESET_B 3.47781e-05
5 *5:10 *654:A 0.000169405
6 *5:10 *661:D 7.44257e-05
7 *5:10 *661:RESET_B 5.3304e-05
8 *5:10 *683:A 0.000128742
9 *5:10 *684:A 5.70419e-05
*RES
1 *683:X *5:10 37.6036 
2 *5:10 data[2] 24.1143 
*END

*D_NET *6 0.000946435
*CONN
*P data[3] O
*I *684:X O *D sky130_fd_sc_hd__clkbuf_4
*CAP
1 data[3] 0.000473218
2 *684:X 0.000473218
*RES
1 *684:X data[3] 47.5286 
*END

*D_NET *7 0.00256687
*CONN
*P data[4] O
*I *685:X O *D sky130_fd_sc_hd__clkbuf_4
*CAP
1 data[4] 0.000992802
2 *685:X 6.15839e-05
3 *7:8 0.00105439
4 data[4] *666:D 0.000248547
5 data[4] *41:73 7.03869e-05
6 data[4] *47:6 5.41288e-05
7 *7:8 *33:16 8.50366e-05
*RES
1 *685:X *7:8 39.2014 
2 *7:8 data[4] 47.6279 
*END

*D_NET *8 0.00108977
*CONN
*P data[5] O
*I *686:X O *D sky130_fd_sc_hd__clkbuf_4
*CAP
1 data[5] 0.000473903
2 *686:X 0.000473903
3 data[5] *680:A 0.00014196
*RES
1 *686:X data[5] 47.57 
*END

*D_NET *9 0.00106753
*CONN
*P data[6] O
*I *680:X O *D sky130_fd_sc_hd__clkbuf_4
*CAP
1 data[6] 0.000484211
2 *680:X 0.000484211
3 data[6] *680:A 9.91101e-05
*RES
1 *680:X data[6] 47.57 
*END

*D_NET *10 0.00085858
*CONN
*P data[7] O
*I *687:LO O *D sky130_fd_sc_hd__conb_1
*CAP
1 data[7] 0.00042929
2 *687:LO 0.00042929
*RES
1 *687:LO data[7] 47.4664 
*END

*D_NET *11 0.000931343
*CONN
*P reset I
*I *677:A I *D sky130_fd_sc_hd__clkbuf_4
*CAP
1 reset 0.000465671
2 *677:A 0.000465671
*RES
1 reset *677:A 48.15 
*END

*D_NET *12 0.00848126
*CONN
*P sclk I
*I *668:A I *D sky130_fd_sc_hd__clkbuf_16
*CAP
1 sclk 0.00117087
2 *668:A 4.40018e-05
3 *12:13 0.00302639
4 *12:11 0.00298239
5 *12:9 0.00117087
6 *12:13 *24:10 8.67412e-05
*RES
1 sclk *12:9 37.3921 
2 *12:9 *12:11 15 
3 *12:11 *12:13 58.0725 
4 *12:13 *668:A 38.9425 
*END

*D_NET *13 0.00108851
*CONN
*P sdi I
*I *678:A I *D sky130_fd_sc_hd__buf_1
*CAP
1 sdi 0.000544253
2 *678:A 0.000544253
*RES
1 sdi *678:A 49.5586 
*END

*D_NET *14 0.000979747
*CONN
*P ss I
*I *679:A I *D sky130_fd_sc_hd__clkbuf_4
*CAP
1 ss 0.000489874
2 *679:A 0.000489874
*RES
1 ss *679:A 48.15 
*END

*D_NET *15 0.00265092
*CONN
*I *663:D I *D sky130_fd_sc_hd__dfrtp_1
*I *652:X O *D sky130_fd_sc_hd__clkbuf_1
*CAP
1 *663:D 0.000427168
2 *652:X 0.000542272
3 *15:10 0.000969439
4 *663:D *663:CLK 8.1796e-05
5 *663:D *663:RESET_B 8.55188e-05
6 *663:D *32:61 4.83949e-05
7 *663:D *41:39 3.45967e-05
8 *663:D *44:8 2.93845e-05
9 *15:10 *30:42 0.000193828
10 *15:10 *41:39 0.000182402
11 *15:10 *43:10 5.61191e-05
*RES
1 *652:X *15:10 49.6 
2 *15:10 *663:D 47.0936 
*END

*D_NET *16 0.00121542
*CONN
*I *664:D I *D sky130_fd_sc_hd__dfrtp_1
*I *654:X O *D sky130_fd_sc_hd__clkbuf_1
*CAP
1 *664:D 8.29818e-05
2 *654:X 0.000277755
3 *16:10 0.000360737
4 *664:D *32:51 0.000137361
5 *16:10 *672:A 0.000238106
6 *16:10 *683:A 3.22051e-05
7 *16:10 *44:12 8.62783e-05
*RES
1 *654:X *16:10 42.9921 
2 *16:10 *664:D 39.5743 
*END

*D_NET *17 0.000265421
*CONN
*I *665:D I *D sky130_fd_sc_hd__dfrtp_1
*I *656:X O *D sky130_fd_sc_hd__clkbuf_1
*CAP
1 *665:D 0
2 *656:X 8.8906e-05
3 *17:8 8.8906e-05
4 *17:8 *26:10 8.76088e-05
5 *17:8 *31:18 0
6 *17:8 *41:73 0
*RES
1 *656:X *17:8 40.2579 
2 *17:8 *665:D 38 
*END

*D_NET *18 0.00177474
*CONN
*I *666:D I *D sky130_fd_sc_hd__dfrtp_1
*I *658:X O *D sky130_fd_sc_hd__clkbuf_1
*CAP
1 *666:D 0.000346601
2 *658:X 0.00039418
3 *18:10 0.000740782
4 *666:D *31:18 7.53384e-06
5 *18:10 *666:RESET_B 2.79004e-05
6 *18:10 *31:8 9.19166e-06
7 data[4] *666:D 0.000248547
*RES
1 *658:X *18:10 43.1579 
2 *18:10 *666:D 46.0164 
*END

*D_NET *19 0.00043104
*CONN
*I *667:D I *D sky130_fd_sc_hd__dfrtp_1
*I *660:X O *D sky130_fd_sc_hd__clkbuf_1
*CAP
1 *667:D 0.000176499
2 *660:X 0.000176499
3 *667:D *660:A 7.80415e-05
*RES
1 *660:X *667:D 49.5421 
*END

*D_NET *20 0.00187657
*CONN
*I *661:D I *D sky130_fd_sc_hd__dfrtp_1
*I *648:X O *D sky130_fd_sc_hd__clkbuf_1
*CAP
1 *661:D 0.000103741
2 *648:X 0.000531294
3 *20:10 0.000635035
4 *661:D *661:RESET_B 1.79175e-05
5 *20:10 *661:RESET_B 0.000111158
6 *20:10 *662:RESET_B 8.82139e-05
7 *20:10 *663:CLK 0
8 *20:10 *41:22 0.0001296
9 *20:10 *41:29 2.193e-05
10 *20:10 *43:16 0.000163256
11 *5:10 *661:D 7.44257e-05
*RES
1 *648:X *20:10 48.5436 
2 *20:10 *661:D 40.0507 
*END

*D_NET *21 0.000237765
*CONN
*I *662:D I *D sky130_fd_sc_hd__dfrtp_1
*I *650:X O *D sky130_fd_sc_hd__clkbuf_1
*CAP
1 *662:D 0
2 *650:X 6.11192e-05
3 *21:8 6.11192e-05
4 *21:8 *36:10 0.000115526
*RES
1 *650:X *21:8 39.5536 
2 *21:8 *662:D 38 
*END

*D_NET *22 0.000390101
*CONN
*I *648:A I *D sky130_fd_sc_hd__clkbuf_1
*I *647:X O *D sky130_fd_sc_hd__mux2_1
*CAP
1 *648:A 0
2 *647:X 0.000145778
3 *22:10 0.000145778
4 *22:10 *662:CLK 7.30768e-05
5 *22:10 *663:CLK 4.41821e-06
6 *22:10 *43:16 2.10502e-05
*RES
1 *647:X *22:10 40.8793 
2 *22:10 *648:A 38 
*END

*D_NET *23 0.000725833
*CONN
*I *673:A I *D sky130_fd_sc_hd__dlygate4sd3_1
*I *649:X O *D sky130_fd_sc_hd__mux2_1
*CAP
1 *673:A 0
2 *649:X 0.00030817
3 *23:10 0.00030817
4 *23:10 *649:A0 5.76359e-05
5 *23:10 *662:RESET_B 5.18573e-05
*RES
1 *649:X *23:10 43.8207 
2 *23:10 *673:A 38 
*END

*D_NET *24 0.00170518
*CONN
*I *652:A I *D sky130_fd_sc_hd__clkbuf_1
*I *651:X O *D sky130_fd_sc_hd__mux2_1
*CAP
1 *652:A 0
2 *651:X 0.000408633
3 *24:10 0.000408633
4 *24:10 *651:A0 9.41704e-05
5 *24:10 *672:A 0.000449402
6 *24:10 *32:51 3.54728e-05
7 *24:10 *39:8 0
8 *24:10 *41:39 0
9 *24:10 *41:58 0.000167123
10 *24:10 *44:8 5.50049e-05
11 *12:13 *24:10 8.67412e-05
*RES
1 *651:X *24:10 48.0464 
2 *24:10 *652:A 38 
*END

*D_NET *25 0.00166334
*CONN
*I *654:A I *D sky130_fd_sc_hd__clkbuf_1
*I *653:X O *D sky130_fd_sc_hd__mux2_1
*CAP
1 *654:A 3.30071e-05
2 *653:X 0.000613186
3 *25:8 0.000646193
4 *654:A *683:A 0.000187968
5 *25:8 *684:A 1.35779e-05
6 *25:8 *44:12 0
7 *25:8 *45:10 0
8 *5:10 *654:A 0.000169405
*RES
1 *653:X *25:8 48.7093 
2 *25:8 *654:A 40.0507 
*END

*D_NET *26 0.00108172
*CONN
*I *656:A I *D sky130_fd_sc_hd__clkbuf_1
*I *655:X O *D sky130_fd_sc_hd__mux2_1
*CAP
1 *656:A 0
2 *655:X 0.00039062
3 *26:10 0.00039062
4 *26:10 *31:18 0
5 *26:10 *46:14 7.33051e-05
6 *26:10 *46:32 0.000139564
7 *17:8 *26:10 8.76088e-05
*RES
1 *655:X *26:10 45.7264 
2 *26:10 *656:A 38 
*END

*D_NET *27 0.00143342
*CONN
*I *658:A I *D sky130_fd_sc_hd__clkbuf_1
*I *657:X O *D sky130_fd_sc_hd__mux2_1
*CAP
1 *658:A 0
2 *657:X 0.000484017
3 *27:12 0.000484017
4 *27:12 *680:A 1.70513e-05
5 *27:12 *33:16 0
6 *27:12 *38:8 8.71559e-05
7 *27:12 *38:12 0.000361176
8 *27:12 *47:12 0
*RES
1 *657:X *27:12 47.6529 
2 *27:12 *658:A 38 
*END

*D_NET *28 0.000753689
*CONN
*I *660:A I *D sky130_fd_sc_hd__clkbuf_1
*I *659:X O *D sky130_fd_sc_hd__mux2_1
*CAP
1 *660:A 0.000256404
2 *659:X 6.97157e-05
3 *28:8 0.00032612
4 *28:8 *41:73 2.34077e-05
5 *667:D *660:A 7.80415e-05
*RES
1 *659:X *28:8 39.2014 
2 *28:8 *660:A 43.0957 
*END

*D_NET *29 0.00325446
*CONN
*I *670:A I *D sky130_fd_sc_hd__clkbuf_16
*I *669:A I *D sky130_fd_sc_hd__clkbuf_16
*I *668:X O *D sky130_fd_sc_hd__clkbuf_16
*CAP
1 *670:A 0
2 *669:A 0
3 *668:X 0
4 *29:29 0.000343795
5 *29:12 0.000956514
6 *29:4 0.00130031
7 *29:12 *672:A 2.64616e-05
8 *29:12 *41:39 0.000167522
9 *29:12 *41:58 9.98987e-05
10 *29:29 *31:8 5.14826e-05
11 *29:29 *32:35 0.000271874
12 *29:29 *46:32 3.6608e-05
*RES
1 *668:X *29:4 23 
2 *29:4 *29:12 42.8843 
3 *29:12 *669:A 23 
4 *29:4 *29:29 37.9336 
5 *29:29 *670:A 23 
*END

*D_NET *30 0.00368523
*CONN
*I *664:CLK I *D sky130_fd_sc_hd__dfrtp_1
*I *661:CLK I *D sky130_fd_sc_hd__dfrtp_1
*I *662:CLK I *D sky130_fd_sc_hd__dfrtp_1
*I *663:CLK I *D sky130_fd_sc_hd__dfrtp_1
*I *669:X O *D sky130_fd_sc_hd__clkbuf_16
*CAP
1 *664:CLK 0.000172924
2 *661:CLK 0
3 *662:CLK 0.000222752
4 *663:CLK 0.000400382
5 *669:X 0
6 *30:42 0.000310519
7 *30:36 0.000816837
8 *30:8 0.000670181
9 *30:4 0.000380442
10 *662:CLK *36:10 6.90927e-05
11 *663:CLK *43:24 0
12 *30:8 *43:16 1.358e-05
13 *30:36 *43:16 0.0002754
14 *30:42 *661:RESET_B 0
15 *30:42 *662:RESET_B 0
16 *30:42 *39:8 0
17 *30:42 *44:12 0
18 *663:D *663:CLK 8.1796e-05
19 *15:10 *30:42 0.000193828
20 *20:10 *663:CLK 0
21 *22:10 *662:CLK 7.30768e-05
22 *22:10 *663:CLK 4.41821e-06
*RES
1 *669:X *30:4 23 
2 *30:4 *30:8 15.6214 
3 *30:8 *663:CLK 44.96 
4 *30:8 *662:CLK 42.7229 
5 *30:4 *30:36 6.71143 
6 *30:36 *30:42 35.7793 
7 *30:42 *661:CLK 23 
8 *30:36 *664:CLK 25.5271 
*END

*D_NET *31 0.00228925
*CONN
*I *667:CLK I *D sky130_fd_sc_hd__dfrtp_1
*I *666:CLK I *D sky130_fd_sc_hd__dfrtp_1
*I *665:CLK I *D sky130_fd_sc_hd__dfrtp_1
*I *670:X O *D sky130_fd_sc_hd__clkbuf_16
*CAP
1 *667:CLK 0.000108376
2 *666:CLK 0
3 *665:CLK 3.01153e-05
4 *670:X 0.000566401
5 *31:18 0.000303711
6 *31:8 0.000948373
7 *667:CLK *41:73 6.3585e-05
8 *31:8 *32:35 9.59512e-05
9 *31:18 *41:73 0.000104534
10 *666:D *31:18 7.53384e-06
11 *17:8 *31:18 0
12 *18:10 *31:8 9.19166e-06
13 *26:10 *31:18 0
14 *29:29 *31:8 5.14826e-05
*RES
1 *670:X *31:8 45.7679 
2 *31:8 *31:18 20.5307 
3 *31:18 *665:CLK 23.6214 
4 *31:18 *666:CLK 23 
5 *31:8 *667:CLK 39.9057 
*END

*D_NET *32 0.0176662
*CONN
*I *665:RESET_B I *D sky130_fd_sc_hd__dfrtp_1
*I *662:RESET_B I *D sky130_fd_sc_hd__dfrtp_1
*I *661:RESET_B I *D sky130_fd_sc_hd__dfrtp_1
*I *663:RESET_B I *D sky130_fd_sc_hd__dfrtp_1
*I *664:RESET_B I *D sky130_fd_sc_hd__dfrtp_1
*I *666:RESET_B I *D sky130_fd_sc_hd__dfrtp_1
*I *667:RESET_B I *D sky130_fd_sc_hd__dfrtp_1
*I *677:X O *D sky130_fd_sc_hd__clkbuf_4
*CAP
1 *665:RESET_B 0.000287099
2 *662:RESET_B 0.000334718
3 *661:RESET_B 0.000320879
4 *663:RESET_B 0.000434081
5 *664:RESET_B 1.94347e-05
6 *666:RESET_B 0.000151171
7 *667:RESET_B 0.00178952
8 *677:X 0
9 *32:61 0.000681165
10 *32:51 0.00136629
11 *32:35 0.00131588
12 *32:22 0.00114348
13 *32:8 0.00474507
14 *32:6 0.00332209
15 *662:RESET_B *43:10 8.57485e-05
16 *662:RESET_B *43:16 0.00030031
17 *663:RESET_B *651:A0 4.84129e-06
18 *663:RESET_B *651:A1 0.000100069
19 *663:RESET_B *41:39 1.57571e-05
20 *663:RESET_B *44:8 1.11786e-05
21 *664:RESET_B *45:8 2.45549e-06
22 *665:RESET_B *651:A0 0.000141409
23 *666:RESET_B *33:16 0
24 *666:RESET_B *41:73 0
25 *667:RESET_B *33:8 1.23353e-05
26 *32:35 *45:8 2.15233e-05
27 *32:51 *41:39 0
28 data[2] *661:RESET_B 3.47781e-05
29 *661:D *661:RESET_B 1.79175e-05
30 *663:D *663:RESET_B 8.55188e-05
31 *663:D *32:61 4.83949e-05
32 *664:D *32:51 0.000137361
33 *5:10 *661:RESET_B 5.3304e-05
34 *18:10 *666:RESET_B 2.79004e-05
35 *20:10 *661:RESET_B 0.000111158
36 *20:10 *662:RESET_B 8.82139e-05
37 *23:10 *662:RESET_B 5.18573e-05
38 *24:10 *32:51 3.54728e-05
39 *29:29 *32:35 0.000271874
40 *30:42 *661:RESET_B 0
41 *30:42 *662:RESET_B 0
42 *31:8 *32:35 9.59512e-05
*RES
1 *677:X *32:6 38 
2 *32:6 *32:8 66.3479 
3 *32:8 *667:RESET_B 38.8939 
4 *667:RESET_B *32:22 21.2661 
5 *32:22 *666:RESET_B 17.2579 
6 *32:22 *32:35 27.0764 
7 *32:35 *664:RESET_B 0.548929 
8 *32:35 *32:51 38.99 
9 *32:51 *663:RESET_B 6.1625 
10 *663:RESET_B *32:61 15.5489 
11 *32:61 *661:RESET_B 21.1625 
12 *32:61 *662:RESET_B 22.8921 
13 *32:51 *665:RESET_B 4.52607 
*END

*D_NET *33 0.00514408
*CONN
*I *659:A1 I *D sky130_fd_sc_hd__mux2_1
*I *680:A I *D sky130_fd_sc_hd__clkbuf_4
*I *657:A0 I *D sky130_fd_sc_hd__mux2_1
*I *667:Q O *D sky130_fd_sc_hd__dfrtp_1
*CAP
1 *659:A1 0.000485489
2 *680:A 0.000851622
3 *657:A0 7.77406e-05
4 *667:Q 4.9741e-05
5 *33:16 0.00143306
6 *33:8 0.00103893
7 *657:A0 *685:A 0.00027791
8 *657:A0 *38:12 0.000364114
9 *659:A1 *659:S 2.10502e-05
10 *680:A *38:12 0.000188934
11 data[5] *680:A 0.00014196
12 data[6] *680:A 9.91101e-05
13 *666:RESET_B *33:16 0
14 *667:RESET_B *33:8 1.23353e-05
15 *7:8 *33:16 8.50366e-05
16 *27:12 *680:A 1.70513e-05
17 *27:12 *33:16 0
*RES
1 *667:Q *33:8 38.6214 
2 *33:8 *33:16 23.6586 
3 *33:16 *657:A0 26.9564 
4 *33:16 *680:A 39.5093 
5 *33:8 *659:A1 44.9186 
*END

*D_NET *34 0.000320915
*CONN
*I *647:A1 I *D sky130_fd_sc_hd__mux2_1
*I *671:X O *D sky130_fd_sc_hd__dlygate4sd3_1
*CAP
1 *647:A1 0
2 *671:X 0.000117314
3 *34:10 0.000117314
4 *34:10 *43:24 8.62876e-05
*RES
1 *671:X *34:10 39.8229 
2 *34:10 *647:A1 38 
*END

*D_NET *35 0.000611328
*CONN
*I *649:A0 I *D sky130_fd_sc_hd__mux2_1
*I *672:X O *D sky130_fd_sc_hd__dlygate4sd3_1
*CAP
1 *649:A0 0.000116798
2 *672:X 0.000116798
3 *649:A0 *41:29 0.000320097
4 *23:10 *649:A0 5.76359e-05
*RES
1 *672:X *649:A0 49.48 
*END

*D_NET *36 0.000825695
*CONN
*I *650:A I *D sky130_fd_sc_hd__clkbuf_1
*I *673:X O *D sky130_fd_sc_hd__dlygate4sd3_1
*CAP
1 *650:A 5.80787e-05
2 *673:X 0.000233317
3 *36:10 0.000291395
4 *650:A *41:22 5.82853e-05
5 *662:CLK *36:10 6.90927e-05
6 *21:8 *36:10 0.000115526
*RES
1 *673:X *36:10 42.64 
2 *36:10 *650:A 39.4707 
*END

*D_NET *37 0.000584347
*CONN
*I *653:A0 I *D sky130_fd_sc_hd__mux2_1
*I *674:X O *D sky130_fd_sc_hd__dlygate4sd3_1
*CAP
1 *653:A0 0.000183165
2 *674:X 7.58435e-05
3 *37:8 0.000259008
4 *653:A0 *41:58 6.63302e-05
*RES
1 *674:X *37:8 39.2014 
2 *37:8 *653:A0 41.2521 
*END

*D_NET *38 0.00242634
*CONN
*I *657:A1 I *D sky130_fd_sc_hd__mux2_1
*I *655:A0 I *D sky130_fd_sc_hd__mux2_1
*I *675:X O *D sky130_fd_sc_hd__dlygate4sd3_1
*CAP
1 *657:A1 0
2 *655:A0 0.000111133
3 *675:X 0.00011603
4 *38:12 0.000260511
5 *38:8 0.000265407
6 *655:A0 *657:S 0.00021477
7 *655:A0 *685:A 0.000358425
8 *655:A0 *41:73 5.67058e-05
9 *655:A0 *46:14 2.4754e-05
10 *38:12 *685:A 1.72202e-05
11 *657:A0 *38:12 0.000364114
12 *680:A *38:12 0.000188934
13 *27:12 *38:8 8.71559e-05
14 *27:12 *38:12 0.000361176
*RES
1 *675:X *38:8 39.9057 
2 *38:8 *38:12 21.3386 
3 *38:12 *655:A0 27.93 
4 *38:12 *657:A1 23 
*END

*D_NET *39 0.000539072
*CONN
*I *651:A1 I *D sky130_fd_sc_hd__mux2_1
*I *676:X O *D sky130_fd_sc_hd__dlygate4sd3_1
*CAP
1 *651:A1 3.23702e-05
2 *676:X 0.000168609
3 *39:8 0.000200979
4 *651:A1 *41:39 6.17437e-06
5 *651:A1 *44:8 1.94257e-05
6 *39:8 *672:A 0
7 *39:8 *41:39 1.14452e-05
8 *39:8 *44:12 0
9 *663:RESET_B *651:A1 0.000100069
10 *24:10 *39:8 0
11 *30:42 *39:8 0
*RES
1 *676:X *39:8 40.61 
2 *39:8 *651:A1 39.0979 
*END

*D_NET *40 0.00710514
*CONN
*I *659:A0 I *D sky130_fd_sc_hd__mux2_1
*I *678:X O *D sky130_fd_sc_hd__buf_1
*CAP
1 *659:A0 0
2 *678:X 0.000328213
3 *40:10 0.00322436
4 *40:8 0.00355257
*RES
1 *678:X *40:8 41.9564 
2 *40:8 *40:10 64.235 
3 *40:10 *659:A0 38 
*END

*D_NET *41 0.0158975
*CONN
*I *647:S I *D sky130_fd_sc_hd__mux2_1
*I *659:S I *D sky130_fd_sc_hd__mux2_1
*I *657:S I *D sky130_fd_sc_hd__mux2_1
*I *655:S I *D sky130_fd_sc_hd__mux2_1
*I *653:S I *D sky130_fd_sc_hd__mux2_1
*I *651:S I *D sky130_fd_sc_hd__mux2_1
*I *649:S I *D sky130_fd_sc_hd__mux2_1
*I *679:X O *D sky130_fd_sc_hd__clkbuf_4
*CAP
1 *647:S 0
2 *659:S 0.000239287
3 *657:S 9.77814e-05
4 *655:S 0
5 *653:S 0
6 *651:S 0
7 *649:S 0
8 *679:X 0
9 *41:73 0.000739978
10 *41:65 0.00122422
11 *41:58 0.00107772
12 *41:39 0.000238562
13 *41:29 0.00123417
14 *41:22 0.000741263
15 *41:12 0.000958142
16 *41:8 0.00395154
17 *41:6 0.00347404
18 *41:39 *651:A0 0
19 *41:39 *44:8 2.93747e-05
20 *41:58 *653:A1 5.58003e-05
21 data[4] *41:73 7.03869e-05
22 *649:A0 *41:29 0.000320097
23 *650:A *41:22 5.82853e-05
24 *651:A1 *41:39 6.17437e-06
25 *653:A0 *41:58 6.63302e-05
26 *655:A0 *657:S 0.00021477
27 *655:A0 *41:73 5.67058e-05
28 *659:A1 *659:S 2.10502e-05
29 *663:D *41:39 3.45967e-05
30 *663:RESET_B *41:39 1.57571e-05