** sch_path: /foss/designs/projects/dpga2/xschem/dpga.sch
.subckt dpga inn inp ib out gnd vd ss sdi sclk reset gndd vpwr
*.PININFO inn:I inp:I ib:B out:O gnd:B vd:B ss:I sdi:I sclk:I reset:I gndd:B vpwr:B
XR8 out n8 gnd sky130_fd_pr__res_xhigh_po_0p35 L=44.62 mult=1 m=1
x1 gnd vd data[5] data[1] data[2] data[6] data[7] data[3] data[0] data[4] n8 inn digpotp
X2 vd ib out inp n8 gnd ota
R1 vgnd gndd sky130_fd_pr__res_generic_m1 W=1 L=1 m=1
**** begin user architecture code


* NGSPICE file created from sr.ext - technology: sky130A

* Black-box entry subcircuit for sky130_ef_sc_hd__decap_12 abstract view
.subckt sky130_ef_sc_hd__decap_12 VGND VPWR VPB VNB
.ends

* Black-box entry subcircuit for sky130_fd_sc_hd__fill_1 abstract view
.subckt sky130_fd_sc_hd__fill_1 VGND VNB VPB VPWR
.ends

* Black-box entry subcircuit for sky130_fd_sc_hd__decap_4 abstract view
.subckt sky130_fd_sc_hd__decap_4 VGND VNB VPB VPWR
.ends

* Black-box entry subcircuit for sky130_fd_sc_hd__fill_2 abstract view
.subckt sky130_fd_sc_hd__fill_2 VGND VNB VPB VPWR
.ends

* Black-box entry subcircuit for sky130_fd_sc_hd__decap_3 abstract view
.subckt sky130_fd_sc_hd__decap_3 VGND VNB VPB VPWR
.ends

* Black-box entry subcircuit for sky130_fd_sc_hd__tapvpwrvgnd_1 abstract view
.subckt sky130_fd_sc_hd__tapvpwrvgnd_1 VGND VPWR
.ends

* Black-box entry subcircuit for sky130_fd_sc_hd__decap_8 abstract view
.subckt sky130_fd_sc_hd__decap_8 VGND VNB VPB VPWR
.ends

* Black-box entry subcircuit for sky130_fd_sc_hd__clkbuf_4 abstract view
.subckt sky130_fd_sc_hd__clkbuf_4 A VGND VNB VPB VPWR X
.ends

* Black-box entry subcircuit for sky130_fd_sc_hd__decap_6 abstract view
.subckt sky130_fd_sc_hd__decap_6 VGND VNB VPB VPWR
.ends

* Black-box entry subcircuit for sky130_fd_sc_hd__dfrtp_1 abstract view
.subckt sky130_fd_sc_hd__dfrtp_1 CLK D RESET_B VGND VNB VPB VPWR Q
.ends

* Black-box entry subcircuit for sky130_fd_sc_hd__clkbuf_1 abstract view
.subckt sky130_fd_sc_hd__clkbuf_1 A VGND VNB VPB VPWR X
.ends

* Black-box entry subcircuit for sky130_fd_sc_hd__clkbuf_16 abstract view
.subckt sky130_fd_sc_hd__clkbuf_16 A VGND VNB VPB VPWR X
.ends

* Black-box entry subcircuit for sky130_fd_sc_hd__mux2_1 abstract view
.subckt sky130_fd_sc_hd__mux2_1 A0 A1 S VGND VNB VPB VPWR X
.ends

* Black-box entry subcircuit for sky130_fd_sc_hd__buf_1 abstract view
.subckt sky130_fd_sc_hd__buf_1 A VGND VNB VPB VPWR X
.ends

* Black-box entry subcircuit for sky130_fd_sc_hd__dlygate4sd3_1 abstract view
.subckt sky130_fd_sc_hd__dlygate4sd3_1 A VGND VNB VPB VPWR X
.ends

* Black-box entry subcircuit for sky130_fd_sc_hd__conb_1 abstract view
.subckt sky130_fd_sc_hd__conb_1 VGND VNB VPB VPWR HI LO
.ends

*.subckt sr VGND VPWR data[0] data[1] data[2] data[3] data[4] data[5] data[6] data[7]
*+ reset sclk sdi ss
XFILLER_0_7_81 VGND VPWR VPWR VGND sky130_ef_sc_hd__decap_12
XFILLER_0_3_39 VGND VGND VPWR VPWR sky130_fd_sc_hd__fill_1
XFILLER_0_13_51 VGND VGND VPWR VPWR sky130_fd_sc_hd__decap_4
XFILLER_0_18_29 VGND VPWR VPWR VGND sky130_ef_sc_hd__decap_12
XFILLER_0_24_83 VGND VGND VPWR VPWR sky130_fd_sc_hd__fill_1
XFILLER_0_4_82 VGND VGND VPWR VPWR sky130_fd_sc_hd__fill_2
XFILLER_0_4_93 VGND VGND VPWR VPWR sky130_fd_sc_hd__fill_2
XFILLER_0_9_27 VGND VPWR VPWR VGND sky130_ef_sc_hd__decap_12
XFILLER_0_10_41 VGND VPWR VPWR VGND sky130_ef_sc_hd__decap_12
XFILLER_0_10_85 VGND VPWR VPWR VGND sky130_ef_sc_hd__decap_12
XFILLER_0_19_125 VGND VPWR VPWR VGND sky130_ef_sc_hd__decap_12
XPHY_EDGE_ROW_8_Left_36 VGND VGND VPWR VPWR sky130_fd_sc_hd__decap_3
XFILLER_0_24_161 VGND VGND VPWR VPWR sky130_fd_sc_hd__fill_2
XFILLER_0_21_51 VGND VGND VPWR VPWR sky130_fd_sc_hd__decap_4
XFILLER_0_16_139 VGND VGND VPWR VPWR sky130_fd_sc_hd__fill_1
XFILLER_0_26_29 VGND VPWR VPWR VGND sky130_ef_sc_hd__decap_12
XFILLER_0_22_109 VGND VPWR VPWR VGND sky130_ef_sc_hd__decap_12
XFILLER_0_15_161 VGND VGND VPWR VPWR sky130_fd_sc_hd__fill_2
XTAP_TAPCELL_ROW_27_126 VGND VPWR sky130_fd_sc_hd__tapvpwrvgnd_1
XFILLER_0_12_153 VGND VGND VPWR VPWR sky130_fd_sc_hd__decap_8
XTAP_TAPCELL_ROW_18_104 VGND VPWR sky130_fd_sc_hd__tapvpwrvgnd_1
Xoutput7 net7 VGND VGND VPWR VPWR data[3] sky130_fd_sc_hd__clkbuf_4
XTAP_TAPCELL_ROW_24_118 VGND VPWR sky130_fd_sc_hd__tapvpwrvgnd_1
XFILLER_0_4_161 VGND VGND VPWR VPWR sky130_fd_sc_hd__fill_2
XFILLER_0_7_93 VGND VPWR VPWR VGND sky130_ef_sc_hd__decap_12
XPHY_EDGE_ROW_21_Left_49 VGND VGND VPWR VPWR sky130_fd_sc_hd__decap_3
XTAP_TAPCELL_ROW_12_88 VGND VPWR sky130_fd_sc_hd__tapvpwrvgnd_1
XTAP_TAPCELL_ROW_20_110 VGND VPWR sky130_fd_sc_hd__tapvpwrvgnd_1
XTAP_TAPCELL_ROW_8_78 VGND VPWR sky130_fd_sc_hd__tapvpwrvgnd_1
XPHY_EDGE_ROW_21_Right_21 VGND VGND VPWR VPWR sky130_fd_sc_hd__decap_3
XPHY_EDGE_ROW_12_Right_12 VGND VGND VPWR VPWR sky130_fd_sc_hd__decap_3
XFILLER_0_9_39 VGND VPWR VPWR VGND sky130_ef_sc_hd__decap_12
XPHY_EDGE_ROW_24_Left_52 VGND VGND VPWR VPWR sky130_fd_sc_hd__decap_3
XFILLER_0_19_137 VGND VPWR VPWR VGND sky130_ef_sc_hd__decap_12
XFILLER_0_19_51 VGND VGND VPWR VPWR sky130_fd_sc_hd__decap_4
XFILLER_0_10_53 VGND VPWR VPWR VGND sky130_ef_sc_hd__decap_12
XFILLER_0_10_97 VGND VPWR VPWR VGND sky130_ef_sc_hd__decap_12
XFILLER_0_27_3 VGND VGND VPWR VPWR sky130_fd_sc_hd__decap_8
XFILLER_0_6_29 VGND VPWR VPWR VGND sky130_ef_sc_hd__decap_12
XFILLER_0_16_41 VGND VPWR VPWR VGND sky130_ef_sc_hd__decap_12
XFILLER_0_16_85 VGND VPWR VPWR VGND sky130_ef_sc_hd__decap_12
XTAP_TAPCELL_ROW_27_127 VGND VPWR sky130_fd_sc_hd__tapvpwrvgnd_1
XPHY_EDGE_ROW_6_Right_6 VGND VGND VPWR VPWR sky130_fd_sc_hd__decap_3
XFILLER_0_12_121 VGND VPWR VPWR VGND sky130_ef_sc_hd__decap_12
XTAP_TAPCELL_ROW_18_105 VGND VPWR sky130_fd_sc_hd__tapvpwrvgnd_1
Xoutput10 net10 VGND VGND VPWR VPWR data[6] sky130_fd_sc_hd__clkbuf_4
Xoutput8 net8 VGND VGND VPWR VPWR data[4] sky130_fd_sc_hd__clkbuf_4
XTAP_TAPCELL_ROW_24_119 VGND VPWR sky130_fd_sc_hd__tapvpwrvgnd_1
XFILLER_0_1_121 VGND VPWR VPWR VGND sky130_ef_sc_hd__decap_12
XTAP_TAPCELL_ROW_12_89 VGND VPWR sky130_fd_sc_hd__tapvpwrvgnd_1
XTAP_TAPCELL_ROW_8_79 VGND VPWR sky130_fd_sc_hd__tapvpwrvgnd_1
XFILLER_0_24_85 VGND VPWR VPWR VGND sky130_ef_sc_hd__decap_12
XFILLER_0_24_41 VGND VPWR VPWR VGND sky130_ef_sc_hd__decap_12
XFILLER_0_27_160 VGND VGND VPWR VPWR sky130_fd_sc_hd__decap_3
XFILLER_0_19_149 VGND VPWR VPWR VGND sky130_ef_sc_hd__decap_12
XFILLER_0_19_105 VGND VGND VPWR VPWR sky130_fd_sc_hd__decap_6
XFILLER_0_10_65 VGND VPWR VPWR VGND sky130_ef_sc_hd__decap_12
XFILLER_0_24_141 VGND VPWR VPWR VGND sky130_ef_sc_hd__decap_12
XFILLER_0_21_111 VGND VGND VPWR VPWR sky130_fd_sc_hd__fill_1
XFILLER_0_12_133 VGND VGND VPWR VPWR sky130_fd_sc_hd__decap_6
XFILLER_0_16_53 VGND VPWR VPWR VGND sky130_ef_sc_hd__decap_12
XFILLER_0_16_97 VGND VPWR VPWR VGND sky130_ef_sc_hd__decap_12
XTAP_TAPCELL_ROW_27_128 VGND VPWR sky130_fd_sc_hd__tapvpwrvgnd_1
Xoutput9 net9 VGND VGND VPWR VPWR data[5] sky130_fd_sc_hd__clkbuf_4
XFILLER_0_9_3 VGND VPWR VPWR VGND sky130_ef_sc_hd__decap_12
XFILLER_0_27_85 VGND VPWR VPWR VGND sky130_ef_sc_hd__decap_12
XFILLER_0_27_41 VGND VPWR VPWR VGND sky130_ef_sc_hd__decap_12
XFILLER_0_4_141 VGND VPWR VPWR VGND sky130_ef_sc_hd__decap_12
XFILLER_0_7_51 VGND VGND VPWR VPWR sky130_fd_sc_hd__decap_4
XFILLER_0_1_133 VGND VPWR VPWR VGND sky130_ef_sc_hd__decap_12
XFILLER_0_1_111 VGND VGND VPWR VPWR sky130_fd_sc_hd__fill_1
XFILLER_0_24_97 VGND VPWR VPWR VGND sky130_ef_sc_hd__decap_12
XFILLER_0_24_53 VGND VPWR VPWR VGND sky130_ef_sc_hd__decap_12
XFILLER_0_4_41 VGND VGND VPWR VPWR sky130_fd_sc_hd__fill_1
XFILLER_0_4_85 VGND VGND VPWR VPWR sky130_fd_sc_hd__decap_8
XFILLER_0_10_77 VGND VGND VPWR VPWR sky130_fd_sc_hd__decap_6
XFILLER_0_18_161 VGND VGND VPWR VPWR sky130_fd_sc_hd__fill_2
XFILLER_0_16_109 VGND VPWR VPWR VGND sky130_ef_sc_hd__decap_12
XFILLER_0_24_153 VGND VGND VPWR VPWR sky130_fd_sc_hd__decap_8
X_29_ clknet_1_0__leaf_sclk _06_ net1 VGND VGND VPWR VPWR net5 sky130_fd_sc_hd__dfrtp_1
XFILLER_0_8_139 VGND VGND VPWR VPWR sky130_fd_sc_hd__fill_1
XFILLER_0_16_65 VGND VPWR VPWR VGND sky130_ef_sc_hd__decap_12
XTAP_TAPCELL_ROW_27_129 VGND VPWR sky130_fd_sc_hd__tapvpwrvgnd_1
XFILLER_0_7_161 VGND VGND VPWR VPWR sky130_fd_sc_hd__fill_2
XFILLER_0_27_97 VGND VGND VPWR VPWR sky130_fd_sc_hd__decap_8
XFILLER_0_27_53 VGND VGND VPWR VPWR sky130_fd_sc_hd__decap_3
XFILLER_0_4_153 VGND VGND VPWR VPWR sky130_fd_sc_hd__decap_8
XFILLER_0_13_55 VGND VGND VPWR VPWR sky130_fd_sc_hd__fill_1
XFILLER_0_1_145 VGND VPWR VPWR VGND sky130_ef_sc_hd__decap_12
XFILLER_0_24_65 VGND VPWR VPWR VGND sky130_ef_sc_hd__decap_12
XTAP_TAPCELL_ROW_0_60 VGND VPWR sky130_fd_sc_hd__tapvpwrvgnd_1
XFILLER_0_24_121 VGND VPWR VPWR VGND sky130_ef_sc_hd__decap_12
XFILLER_0_21_55 VGND VGND VPWR VPWR sky130_fd_sc_hd__fill_1
X_28_ clknet_1_0__leaf_sclk _05_ net1 VGND VGND VPWR VPWR net4 sky130_fd_sc_hd__dfrtp_1
XFILLER_0_21_113 VGND VPWR VPWR VGND sky130_ef_sc_hd__decap_12
XFILLER_0_16_77 VGND VGND VPWR VPWR sky130_fd_sc_hd__decap_6
XFILLER_0_25_3 VGND VPWR VPWR VGND sky130_ef_sc_hd__decap_12
XPHY_EDGE_ROW_19_Right_19 VGND VGND VPWR VPWR sky130_fd_sc_hd__decap_3
XPHY_EDGE_ROW_15_Left_43 VGND VGND VPWR VPWR sky130_fd_sc_hd__decap_3
XFILLER_0_1_157 VGND VGND VPWR VPWR sky130_fd_sc_hd__decap_6
XPHY_EDGE_ROW_0_Left_28 VGND VGND VPWR VPWR sky130_fd_sc_hd__decap_3
XFILLER_0_0_9 VGND VPWR VPWR VGND sky130_ef_sc_hd__decap_12
XFILLER_0_24_77 VGND VGND VPWR VPWR sky130_fd_sc_hd__decap_6
XFILLER_0_4_65 VGND VGND VPWR VPWR sky130_fd_sc_hd__decap_8
XTAP_TAPCELL_ROW_13_91 VGND VPWR sky130_fd_sc_hd__tapvpwrvgnd_1
XFILLER_0_27_141 VGND VPWR VPWR VGND sky130_ef_sc_hd__decap_12
XFILLER_0_19_55 VGND VGND VPWR VPWR sky130_fd_sc_hd__fill_1
XTAP_TAPCELL_ROW_9_81 VGND VPWR sky130_fd_sc_hd__tapvpwrvgnd_1
XFILLER_0_18_141 VGND VPWR VPWR VGND sky130_ef_sc_hd__decap_12
XPHY_EDGE_ROW_3_Left_31 VGND VGND VPWR VPWR sky130_fd_sc_hd__decap_3
XFILLER_0_24_133 VGND VGND VPWR VPWR sky130_fd_sc_hd__decap_6
X_27_ _13_ VGND VGND VPWR VPWR _04_ sky130_fd_sc_hd__clkbuf_1
XFILLER_0_15_111 VGND VGND VPWR VPWR sky130_fd_sc_hd__fill_1
XFILLER_0_21_125 VGND VPWR VPWR VGND sky130_ef_sc_hd__decap_12
XFILLER_0_18_3 VGND VPWR VPWR VGND sky130_ef_sc_hd__decap_12
XFILLER_0_27_11 VGND VGND VPWR VPWR sky130_fd_sc_hd__fill_2
Xclkbuf_1_0__f_sclk clknet_0_sclk VGND VGND VPWR VPWR clknet_1_0__leaf_sclk
+ sky130_fd_sc_hd__clkbuf_16
XFILLER_0_7_3 VGND VPWR VPWR VGND sky130_ef_sc_hd__decap_12
XFILLER_0_13_57 VGND VPWR VPWR VGND sky130_ef_sc_hd__decap_12
XTAP_TAPCELL_ROW_13_92 VGND VPWR sky130_fd_sc_hd__tapvpwrvgnd_1
XFILLER_0_27_153 VGND VGND VPWR VPWR sky130_fd_sc_hd__fill_1
XTAP_TAPCELL_ROW_9_82 VGND VPWR sky130_fd_sc_hd__tapvpwrvgnd_1
XFILLER_0_18_153 VGND VGND VPWR VPWR sky130_fd_sc_hd__decap_8
XFILLER_0_21_57 VGND VPWR VPWR VGND sky130_ef_sc_hd__decap_12
X_26_ net2 net10 net3 VGND VGND VPWR VPWR _13_ sky130_fd_sc_hd__mux2_1
XFILLER_0_21_137 VGND VPWR VPWR VGND sky130_ef_sc_hd__decap_12
XFILLER_0_8_109 VGND VPWR VPWR VGND sky130_ef_sc_hd__decap_12
XPHY_EDGE_ROW_1_Right_1 VGND VGND VPWR VPWR sky130_fd_sc_hd__decap_3
XFILLER_0_7_55 VGND VGND VPWR VPWR sky130_fd_sc_hd__fill_1
XFILLER_0_13_69 VGND VPWR VPWR VGND sky130_ef_sc_hd__decap_12
XFILLER_0_27_110 VGND VGND VPWR VPWR sky130_fd_sc_hd__fill_2
XFILLER_0_19_57 VGND VPWR VPWR VGND sky130_ef_sc_hd__decap_12
XFILLER_0_10_15 VGND VPWR VPWR VGND sky130_ef_sc_hd__decap_12
XFILLER_0_18_121 VGND VPWR VPWR VGND sky130_ef_sc_hd__decap_12
XFILLER_0_21_69 VGND VPWR VPWR VGND sky130_ef_sc_hd__decap_12
X_25_ _12_ VGND VGND VPWR VPWR _03_ sky130_fd_sc_hd__clkbuf_1
XFILLER_0_1_57 VGND VGND VPWR VPWR sky130_fd_sc_hd__fill_1
XFILLER_0_15_113 VGND VPWR VPWR VGND sky130_ef_sc_hd__decap_12
XFILLER_0_21_149 VGND VPWR VPWR VGND sky130_ef_sc_hd__decap_12
XFILLER_0_21_105 VGND VGND VPWR VPWR sky130_fd_sc_hd__decap_6
XTAP_TAPCELL_ROW_10_83 VGND VPWR sky130_fd_sc_hd__tapvpwrvgnd_1
XTAP_TAPCELL_ROW_6_73 VGND VPWR sky130_fd_sc_hd__tapvpwrvgnd_1
XFILLER_0_27_57 VGND VPWR VPWR VGND sky130_ef_sc_hd__decap_12
XPHY_EDGE_ROW_24_Right_24 VGND VGND VPWR VPWR sky130_fd_sc_hd__decap_3
XFILLER_0_23_3 VGND VPWR VPWR VGND sky130_ef_sc_hd__decap_12
XPHY_EDGE_ROW_15_Right_15 VGND VGND VPWR VPWR sky130_fd_sc_hd__decap_3
XFILLER_0_13_15 VGND VPWR VPWR VGND sky130_ef_sc_hd__decap_12
XPHY_EDGE_ROW_19_Left_47 VGND VGND VPWR VPWR sky130_fd_sc_hd__decap_3
XFILLER_0_19_69 VGND VPWR VPWR VGND sky130_ef_sc_hd__decap_12
XFILLER_0_10_27 VGND VGND VPWR VPWR sky130_fd_sc_hd__fill_1
XFILLER_0_18_133 VGND VGND VPWR VPWR sky130_fd_sc_hd__decap_6
XFILLER_0_21_15 VGND VPWR VPWR VGND sky130_ef_sc_hd__decap_12
X_24_ net10 net16 net3 VGND VGND VPWR VPWR _12_ sky130_fd_sc_hd__mux2_1
XFILLER_0_11_81 VGND VPWR VPWR VGND sky130_ef_sc_hd__decap_12
XFILLER_0_15_125 VGND VPWR VPWR VGND sky130_ef_sc_hd__decap_12
XPHY_EDGE_ROW_7_Left_35 VGND VGND VPWR VPWR sky130_fd_sc_hd__decap_3
XTAP_TAPCELL_ROW_10_84 VGND VPWR sky130_fd_sc_hd__tapvpwrvgnd_1
XFILLER_0_20_161 VGND VGND VPWR VPWR sky130_fd_sc_hd__fill_2
XTAP_TAPCELL_ROW_6_74 VGND VPWR sky130_fd_sc_hd__tapvpwrvgnd_1
XFILLER_0_12_139 VGND VGND VPWR VPWR sky130_fd_sc_hd__fill_1
XFILLER_0_16_15 VGND VPWR VPWR VGND sky130_ef_sc_hd__decap_12
XFILLER_0_7_111 VGND VGND VPWR VPWR sky130_fd_sc_hd__fill_1
XFILLER_0_11_161 VGND VGND VPWR VPWR sky130_fd_sc_hd__fill_2
XFILLER_0_27_69 VGND VPWR VPWR VGND sky130_ef_sc_hd__decap_12
XTAP_TAPCELL_ROW_26_123 VGND VPWR sky130_fd_sc_hd__tapvpwrvgnd_1
XTAP_TAPCELL_ROW_17_101 VGND VPWR sky130_fd_sc_hd__tapvpwrvgnd_1
XFILLER_0_7_57 VGND VPWR VPWR VGND sky130_ef_sc_hd__decap_12
XFILLER_0_16_3 VGND VPWR VPWR VGND sky130_ef_sc_hd__decap_12
XFILLER_0_13_27 VGND VPWR VPWR VGND sky130_ef_sc_hd__decap_12
XFILLER_0_24_15 VGND VPWR VPWR VGND sky130_ef_sc_hd__decap_12
XPHY_EDGE_ROW_20_Left_48 VGND VGND VPWR VPWR sky130_fd_sc_hd__decap_3
XFILLER_0_5_3 VGND VPWR VPWR VGND sky130_ef_sc_hd__decap_12
XFILLER_0_19_15 VGND VPWR VPWR VGND sky130_ef_sc_hd__decap_12
XPHY_EDGE_ROW_23_Left_51 VGND VGND VPWR VPWR sky130_fd_sc_hd__decap_3
XFILLER_0_21_27 VGND VPWR VPWR VGND sky130_ef_sc_hd__decap_12
X_23_ _11_ VGND VGND VPWR VPWR _02_ sky130_fd_sc_hd__clkbuf_1
XFILLER_0_1_15 VGND VPWR VPWR VGND sky130_ef_sc_hd__decap_12
XTAP_TAPCELL_ROW_10_85 VGND VPWR sky130_fd_sc_hd__tapvpwrvgnd_1
XFILLER_0_11_93 VGND VPWR VPWR VGND sky130_ef_sc_hd__decap_12
XFILLER_0_15_137 VGND VPWR VPWR VGND sky130_ef_sc_hd__decap_12
XTAP_TAPCELL_ROW_6_75 VGND VPWR sky130_fd_sc_hd__tapvpwrvgnd_1
XFILLER_0_16_27 VGND VGND VPWR VPWR sky130_fd_sc_hd__fill_1
XTAP_TAPCELL_ROW_26_124 VGND VPWR sky130_fd_sc_hd__tapvpwrvgnd_1
XFILLER_0_2_91 VGND VGND VPWR VPWR sky130_fd_sc_hd__fill_1
XFILLER_0_2_80 VGND VGND VPWR VPWR sky130_fd_sc_hd__fill_1
XTAP_TAPCELL_ROW_17_102 VGND VPWR sky130_fd_sc_hd__tapvpwrvgnd_1
XFILLER_0_4_104 VGND VPWR VPWR VGND sky130_ef_sc_hd__decap_12
XFILLER_0_7_69 VGND VPWR VPWR VGND sky130_ef_sc_hd__decap_12
XTAP_TAPCELL_ROW_23_116 VGND VPWR sky130_fd_sc_hd__tapvpwrvgnd_1
XFILLER_0_17_81 VGND VPWR VPWR VGND sky130_ef_sc_hd__decap_12
XPHY_EDGE_ROW_5_Right_5 VGND VGND VPWR VPWR sky130_fd_sc_hd__decap_3
XFILLER_0_1_107 VGND VGND VPWR VPWR sky130_fd_sc_hd__decap_4
XFILLER_0_13_39 VGND VPWR VPWR VGND sky130_ef_sc_hd__decap_12
XTAP_TAPCELL_ROW_20_108 VGND VPWR sky130_fd_sc_hd__tapvpwrvgnd_1
XFILLER_0_24_27 VGND VGND VPWR VPWR sky130_fd_sc_hd__fill_1
XFILLER_0_4_15 VGND VPWR VPWR VGND sky130_ef_sc_hd__decap_12
XFILLER_0_19_27 VGND VPWR VPWR VGND sky130_ef_sc_hd__decap_12
XFILLER_0_10_29 VGND VPWR VPWR VGND sky130_ef_sc_hd__decap_12
XFILLER_0_27_113 VGND VPWR VPWR VGND sky130_ef_sc_hd__decap_12
XFILLER_0_25_81 VGND VPWR VPWR VGND sky130_ef_sc_hd__decap_12
XFILLER_0_21_39 VGND VPWR VPWR VGND sky130_ef_sc_hd__decap_12
X_22_ net16 net8 net3 VGND VGND VPWR VPWR _11_ sky130_fd_sc_hd__mux2_1
XFILLER_0_1_27 VGND VGND VPWR VPWR sky130_fd_sc_hd__fill_1
XFILLER_0_15_105 VGND VGND VPWR VPWR sky130_fd_sc_hd__decap_6
XFILLER_0_15_149 VGND VPWR VPWR VGND sky130_ef_sc_hd__decap_12
XFILLER_0_20_141 VGND VPWR VPWR VGND sky130_ef_sc_hd__decap_12
XFILLER_0_7_113 VGND VPWR VPWR VGND sky130_ef_sc_hd__decap_12
XTAP_TAPCELL_ROW_26_125 VGND VPWR sky130_fd_sc_hd__tapvpwrvgnd_1
XFILLER_0_27_27 VGND VGND VPWR VPWR sky130_fd_sc_hd__fill_1
XFILLER_0_4_116 VGND VPWR VPWR VGND sky130_ef_sc_hd__decap_12
XFILLER_0_7_15 VGND VPWR VPWR VGND sky130_ef_sc_hd__decap_12
XTAP_TAPCELL_ROW_23_117 VGND VPWR sky130_fd_sc_hd__tapvpwrvgnd_1
XFILLER_0_17_93 VGND VPWR VPWR VGND sky130_ef_sc_hd__decap_12
XPHY_EDGE_ROW_20_Right_20 VGND VGND VPWR VPWR sky130_fd_sc_hd__decap_3
XTAP_TAPCELL_ROW_3_66 VGND VPWR sky130_fd_sc_hd__tapvpwrvgnd_1
XPHY_EDGE_ROW_11_Right_11 VGND VGND VPWR VPWR sky130_fd_sc_hd__decap_3
XFILLER_0_21_3 VGND VPWR VPWR VGND sky130_ef_sc_hd__decap_12
XTAP_TAPCELL_ROW_20_109 VGND VPWR sky130_fd_sc_hd__tapvpwrvgnd_1
XFILLER_0_4_27 VGND VGND VPWR VPWR sky130_fd_sc_hd__fill_1
XFILLER_0_14_83 VGND VGND VPWR VPWR sky130_fd_sc_hd__fill_1
XFILLER_0_27_125 VGND VPWR VPWR VGND sky130_ef_sc_hd__decap_12
XFILLER_0_19_39 VGND VPWR VPWR VGND sky130_ef_sc_hd__decap_12
XTAP_TAPCELL_ROW_0_56 VGND VPWR sky130_fd_sc_hd__tapvpwrvgnd_1
XFILLER_0_25_93 VGND VPWR VPWR VGND sky130_ef_sc_hd__decap_12
XFILLER_0_24_139 VGND VGND VPWR VPWR sky130_fd_sc_hd__fill_1
X_21_ _10_ VGND VGND VPWR VPWR _01_ sky130_fd_sc_hd__clkbuf_1
XFILLER_0_5_81 VGND VPWR VPWR VGND sky130_ef_sc_hd__decap_12
XFILLER_0_23_161 VGND VGND VPWR VPWR sky130_fd_sc_hd__fill_2
XFILLER_0_11_51 VGND VGND VPWR VPWR sky130_fd_sc_hd__decap_4
XFILLER_0_14_161 VGND VGND VPWR VPWR sky130_fd_sc_hd__fill_2
XFILLER_0_16_29 VGND VPWR VPWR VGND sky130_ef_sc_hd__decap_12
XFILLER_0_20_153 VGND VGND VPWR VPWR sky130_fd_sc_hd__decap_8
XFILLER_0_12_109 VGND VPWR VPWR VGND sky130_ef_sc_hd__decap_12
XFILLER_0_22_83 VGND VGND VPWR VPWR sky130_fd_sc_hd__fill_1
XFILLER_0_7_125 VGND VPWR VPWR VGND sky130_ef_sc_hd__decap_12
XFILLER_0_4_128 VGND VPWR VPWR VGND sky130_ef_sc_hd__decap_12
XFILLER_0_7_27 VGND VPWR VPWR VGND sky130_ef_sc_hd__decap_12
XFILLER_0_3_161 VGND VGND VPWR VPWR sky130_fd_sc_hd__fill_2
XTAP_TAPCELL_ROW_3_67 VGND VPWR sky130_fd_sc_hd__tapvpwrvgnd_1
XFILLER_0_14_3 VGND VPWR VPWR VGND sky130_ef_sc_hd__decap_12
XFILLER_0_24_29 VGND VPWR VPWR VGND sky130_ef_sc_hd__decap_12
XFILLER_0_27_137 VGND VGND VPWR VPWR sky130_fd_sc_hd__decap_3
XFILLER_0_3_3 VGND VPWR VPWR VGND sky130_ef_sc_hd__decap_12
XTAP_TAPCELL_ROW_0_57 VGND VPWR sky130_fd_sc_hd__tapvpwrvgnd_1
XFILLER_0_5_93 VGND VPWR VPWR VGND sky130_ef_sc_hd__decap_12
X_20_ net15 net7 net3 VGND VGND VPWR VPWR _10_ sky130_fd_sc_hd__mux2_1
Xinput1 reset VGND VGND VPWR VPWR net1 sky130_fd_sc_hd__clkbuf_4
XPHY_EDGE_ROW_27_Left_55 VGND VGND VPWR VPWR sky130_fd_sc_hd__decap_3
XFILLER_0_20_121 VGND VPWR VPWR VGND sky130_ef_sc_hd__decap_12
XPHY_EDGE_ROW_11_Left_39 VGND VGND VPWR VPWR sky130_fd_sc_hd__decap_3
XFILLER_0_7_137 VGND VPWR VPWR VGND sky130_ef_sc_hd__decap_12
XFILLER_0_27_29 VGND VPWR VPWR VGND sky130_ef_sc_hd__decap_12
XFILLER_0_17_51 VGND VGND VPWR VPWR sky130_fd_sc_hd__decap_4
XFILLER_0_7_39 VGND VPWR VPWR VGND sky130_ef_sc_hd__decap_12
XTAP_TAPCELL_ROW_16_98 VGND VPWR sky130_fd_sc_hd__tapvpwrvgnd_1
XPHY_EDGE_ROW_9_Right_9 VGND VGND VPWR VPWR sky130_fd_sc_hd__decap_3
XPHY_EDGE_ROW_14_Left_42 VGND VGND VPWR VPWR sky130_fd_sc_hd__decap_3
XFILLER_0_4_29 VGND VPWR VPWR VGND sky130_ef_sc_hd__decap_12
XFILLER_0_14_41 VGND VPWR VPWR VGND sky130_ef_sc_hd__decap_12
XFILLER_0_14_85 VGND VPWR VPWR VGND sky130_ef_sc_hd__decap_12
XTAP_TAPCELL_ROW_0_58 VGND VPWR sky130_fd_sc_hd__tapvpwrvgnd_1
XFILLER_0_27_105 VGND VGND VPWR VPWR sky130_fd_sc_hd__fill_2
XFILLER_0_25_51 VGND VGND VPWR VPWR sky130_fd_sc_hd__decap_4
Xinput2 sdi VGND VGND VPWR VPWR net2 sky130_fd_sc_hd__buf_1
XFILLER_0_14_141 VGND VPWR VPWR VGND sky130_ef_sc_hd__decap_12
XFILLER_0_20_133 VGND VGND VPWR VPWR sky130_fd_sc_hd__decap_6
XPHY_EDGE_ROW_2_Left_30 VGND VGND VPWR VPWR sky130_fd_sc_hd__decap_3
XFILLER_0_22_85 VGND VPWR VPWR VGND sky130_ef_sc_hd__decap_12
XFILLER_0_22_41 VGND VPWR VPWR VGND sky130_ef_sc_hd__decap_12
XFILLER_0_7_105 VGND VGND VPWR VPWR sky130_fd_sc_hd__decap_6
XFILLER_0_7_149 VGND VPWR VPWR VGND sky130_ef_sc_hd__decap_12
XFILLER_0_11_111 VGND VGND VPWR VPWR sky130_fd_sc_hd__fill_1
XFILLER_0_27_19 VGND VGND VPWR VPWR sky130_fd_sc_hd__decap_8
XTAP_TAPCELL_ROW_16_99 VGND VPWR sky130_fd_sc_hd__tapvpwrvgnd_1
XFILLER_0_8_83 VGND VGND VPWR VPWR sky130_fd_sc_hd__fill_1
XFILLER_0_14_53 VGND VPWR VPWR VGND sky130_ef_sc_hd__decap_12
XFILLER_0_14_97 VGND VPWR VPWR VGND sky130_ef_sc_hd__decap_12
XTAP_TAPCELL_ROW_0_59 VGND VPWR sky130_fd_sc_hd__tapvpwrvgnd_1
XFILLER_0_26_161 VGND VGND VPWR VPWR sky130_fd_sc_hd__fill_2
XFILLER_0_18_139 VGND VGND VPWR VPWR sky130_fd_sc_hd__fill_1
XFILLER_0_24_109 VGND VPWR VPWR VGND sky130_ef_sc_hd__decap_12
XFILLER_0_17_161 VGND VGND VPWR VPWR sky130_fd_sc_hd__fill_2
XPHY_EDGE_ROW_27_Right_27 VGND VGND VPWR VPWR sky130_fd_sc_hd__decap_3
Xinput3 ss VGND VGND VPWR VPWR net3 sky130_fd_sc_hd__clkbuf_4
XPHY_EDGE_ROW_18_Right_18 VGND VGND VPWR VPWR sky130_fd_sc_hd__decap_3
XFILLER_0_14_153 VGND VGND VPWR VPWR sky130_fd_sc_hd__decap_8
XFILLER_0_22_97 VGND VPWR VPWR VGND sky130_ef_sc_hd__decap_12
XFILLER_0_22_53 VGND VPWR VPWR VGND sky130_ef_sc_hd__decap_12
XFILLER_0_2_85 VGND VGND VPWR VPWR sky130_fd_sc_hd__decap_6
XFILLER_0_6_161 VGND VGND VPWR VPWR sky130_fd_sc_hd__fill_2
XPHY_EDGE_ROW_0_Right_0 VGND VGND VPWR VPWR sky130_fd_sc_hd__decap_3
XFILLER_0_14_65 VGND VPWR VPWR VGND sky130_ef_sc_hd__decap_12
XFILLER_0_12_3 VGND VPWR VPWR VGND sky130_ef_sc_hd__decap_12
XFILLER_0_1_3 VGND VPWR VPWR VGND sky130_ef_sc_hd__decap_12
XFILLER_0_11_55 VGND VGND VPWR VPWR sky130_fd_sc_hd__fill_1
XFILLER_0_14_121 VGND VPWR VPWR VGND sky130_ef_sc_hd__decap_12
XFILLER_0_22_65 VGND VPWR VPWR VGND sky130_ef_sc_hd__decap_12
XFILLER_0_11_113 VGND VPWR VPWR VGND sky130_ef_sc_hd__decap_12
XFILLER_0_3_110 VGND VGND VPWR VPWR sky130_fd_sc_hd__fill_2
XFILLER_0_0_124 VGND VPWR VPWR VGND sky130_ef_sc_hd__decap_12
XFILLER_0_0_113 VGND VGND VPWR VPWR sky130_fd_sc_hd__decap_4
XFILLER_0_8_41 VGND VPWR VPWR VGND sky130_ef_sc_hd__decap_12
XFILLER_0_8_85 VGND VPWR VPWR VGND sky130_ef_sc_hd__decap_12
XFILLER_0_14_77 VGND VGND VPWR VPWR sky130_fd_sc_hd__decap_6
XPHY_EDGE_ROW_18_Left_46 VGND VGND VPWR VPWR sky130_fd_sc_hd__decap_3
XTAP_TAPCELL_ROW_4_70 VGND VPWR sky130_fd_sc_hd__tapvpwrvgnd_1
XFILLER_0_26_141 VGND VPWR VPWR VGND sky130_ef_sc_hd__decap_12
XFILLER_0_5_53 VGND VGND VPWR VPWR sky130_fd_sc_hd__decap_3
XFILLER_0_23_111 VGND VGND VPWR VPWR sky130_fd_sc_hd__fill_1
XFILLER_0_14_133 VGND VGND VPWR VPWR sky130_fd_sc_hd__decap_6
XFILLER_0_22_77 VGND VGND VPWR VPWR sky130_fd_sc_hd__decap_6
XFILLER_0_6_141 VGND VPWR VPWR VGND sky130_ef_sc_hd__decap_12
XFILLER_0_11_125 VGND VPWR VPWR VGND sky130_ef_sc_hd__decap_12
XPHY_EDGE_ROW_6_Left_34 VGND VGND VPWR VPWR sky130_fd_sc_hd__decap_3
XFILLER_0_17_55 VGND VGND VPWR VPWR sky130_fd_sc_hd__fill_1
XFILLER_0_0_147 VGND VPWR VPWR VGND sky130_ef_sc_hd__decap_12
XFILLER_0_0_136 VGND VGND VPWR VPWR sky130_fd_sc_hd__decap_4
XFILLER_0_8_53 VGND VPWR VPWR VGND sky130_ef_sc_hd__decap_12
XFILLER_0_8_97 VGND VPWR VPWR VGND sky130_ef_sc_hd__decap_12
XFILLER_0_26_153 VGND VGND VPWR VPWR sky130_fd_sc_hd__decap_8
XFILLER_0_25_55 VGND VGND VPWR VPWR sky130_fd_sc_hd__fill_1
XFILLER_0_18_109 VGND VPWR VPWR VGND sky130_ef_sc_hd__decap_12
XTAP_TAPCELL_ROW_1_61 VGND VPWR sky130_fd_sc_hd__tapvpwrvgnd_1
XFILLER_0_11_57 VGND VPWR VPWR VGND sky130_ef_sc_hd__decap_12
XPHY_EDGE_ROW_23_Right_23 VGND VGND VPWR VPWR sky130_fd_sc_hd__decap_3
XFILLER_0_9_161 VGND VGND VPWR VPWR sky130_fd_sc_hd__fill_2
XPHY_EDGE_ROW_14_Right_14 VGND VGND VPWR VPWR sky130_fd_sc_hd__decap_3
XPHY_EDGE_ROW_22_Left_50 VGND VGND VPWR VPWR sky130_fd_sc_hd__decap_3
XFILLER_0_11_137 VGND VPWR VPWR VGND sky130_ef_sc_hd__decap_12
XTAP_TAPCELL_ROW_25_121 VGND VPWR sky130_fd_sc_hd__tapvpwrvgnd_1
XFILLER_0_6_153 VGND VGND VPWR VPWR sky130_fd_sc_hd__decap_8
XTAP_TAPCELL_ROW_22_113 VGND VPWR sky130_fd_sc_hd__tapvpwrvgnd_1
XFILLER_0_0_159 VGND VGND VPWR VPWR sky130_fd_sc_hd__fill_1
XPHY_EDGE_ROW_4_Right_4 VGND VGND VPWR VPWR sky130_fd_sc_hd__decap_3
XFILLER_0_8_65 VGND VPWR VPWR VGND sky130_ef_sc_hd__decap_12
XFILLER_0_26_121 VGND VPWR VPWR VGND sky130_ef_sc_hd__decap_12
XFILLER_0_10_3 VGND VPWR VPWR VGND sky130_ef_sc_hd__decap_12
XFILLER_0_23_113 VGND VPWR VPWR VGND sky130_ef_sc_hd__decap_12
XFILLER_0_11_69 VGND VPWR VPWR VGND sky130_ef_sc_hd__decap_12
XTAP_TAPCELL_ROW_1_62 VGND VPWR sky130_fd_sc_hd__tapvpwrvgnd_1
XFILLER_0_11_105 VGND VGND VPWR VPWR sky130_fd_sc_hd__decap_6
XFILLER_0_11_149 VGND VPWR VPWR VGND sky130_ef_sc_hd__decap_12
XFILLER_0_6_121 VGND VPWR VPWR VGND sky130_ef_sc_hd__decap_12
XTAP_TAPCELL_ROW_25_122 VGND VPWR sky130_fd_sc_hd__tapvpwrvgnd_1
XFILLER_0_17_57 VGND VPWR VPWR VGND sky130_ef_sc_hd__decap_12
XTAP_TAPCELL_ROW_16_100 VGND VPWR sky130_fd_sc_hd__tapvpwrvgnd_1
XTAP_TAPCELL_ROW_22_114 VGND VPWR sky130_fd_sc_hd__tapvpwrvgnd_1
XFILLER_0_3_113 VGND VPWR VPWR VGND sky130_ef_sc_hd__decap_12
XFILLER_0_8_77 VGND VGND VPWR VPWR sky130_fd_sc_hd__decap_6
XFILLER_0_25_57 VGND VPWR VPWR VGND sky130_ef_sc_hd__decap_12
XFILLER_0_26_133 VGND VGND VPWR VPWR sky130_fd_sc_hd__decap_6
XFILLER_0_17_111 VGND VGND VPWR VPWR sky130_fd_sc_hd__fill_1
XFILLER_0_11_15 VGND VPWR VPWR VGND sky130_ef_sc_hd__decap_12
XTAP_TAPCELL_ROW_14_93 VGND VPWR sky130_fd_sc_hd__tapvpwrvgnd_1
XFILLER_0_23_125 VGND VPWR VPWR VGND sky130_ef_sc_hd__decap_12
XFILLER_0_20_139 VGND VGND VPWR VPWR sky130_fd_sc_hd__fill_1
XFILLER_0_6_133 VGND VGND VPWR VPWR sky130_fd_sc_hd__decap_6
XFILLER_0_10_161 VGND VGND VPWR VPWR sky130_fd_sc_hd__fill_2
XFILLER_0_17_69 VGND VPWR VPWR VGND sky130_ef_sc_hd__decap_12
XFILLER_0_3_125 VGND VPWR VPWR VGND sky130_ef_sc_hd__decap_12
XTAP_TAPCELL_ROW_22_115 VGND VPWR sky130_fd_sc_hd__tapvpwrvgnd_1
XFILLER_0_0_117 VGND VGND VPWR VPWR sky130_fd_sc_hd__fill_1
XFILLER_0_14_15 VGND VPWR VPWR VGND sky130_ef_sc_hd__decap_12
XFILLER_0_25_69 VGND VPWR VPWR VGND sky130_ef_sc_hd__decap_12
XFILLER_0_5_57 VGND VPWR VPWR VGND sky130_ef_sc_hd__decap_12
XTAP_TAPCELL_ROW_14_94 VGND VPWR sky130_fd_sc_hd__tapvpwrvgnd_1
XFILLER_0_23_137 VGND VPWR VPWR VGND sky130_ef_sc_hd__decap_12
XFILLER_0_11_27 VGND VPWR VPWR VGND sky130_ef_sc_hd__decap_12
XFILLER_0_22_15 VGND VPWR VPWR VGND sky130_ef_sc_hd__decap_12
XPHY_EDGE_ROW_10_Right_10 VGND VGND VPWR VPWR sky130_fd_sc_hd__decap_3
XPHY_EDGE_ROW_26_Left_54 VGND VGND VPWR VPWR sky130_fd_sc_hd__decap_3
XFILLER_0_17_15 VGND VPWR VPWR VGND sky130_ef_sc_hd__decap_12
XFILLER_0_3_137 VGND VPWR VPWR VGND sky130_ef_sc_hd__decap_12
XPHY_EDGE_ROW_10_Left_38 VGND VGND VPWR VPWR sky130_fd_sc_hd__decap_3
XFILLER_0_26_3 VGND VPWR VPWR VGND sky130_ef_sc_hd__decap_12
XFILLER_0_14_27 VGND VGND VPWR VPWR sky130_fd_sc_hd__fill_1
Xhold1 net4 VGND VGND VPWR VPWR net12 sky130_fd_sc_hd__dlygate4sd3_1
XPHY_EDGE_ROW_8_Right_8 VGND VGND VPWR VPWR sky130_fd_sc_hd__decap_3
XPHY_EDGE_ROW_13_Left_41 VGND VGND VPWR VPWR sky130_fd_sc_hd__decap_3
XFILLER_0_25_15 VGND VPWR VPWR VGND sky130_ef_sc_hd__decap_12
XFILLER_0_5_69 VGND VGND VPWR VPWR sky130_fd_sc_hd__decap_4
XFILLER_0_17_113 VGND VPWR VPWR VGND sky130_ef_sc_hd__decap_12
XTAP_TAPCELL_ROW_14_95 VGND VPWR sky130_fd_sc_hd__tapvpwrvgnd_1
XFILLER_0_15_81 VGND VPWR VPWR VGND sky130_ef_sc_hd__decap_12
XFILLER_0_23_149 VGND VPWR VPWR VGND sky130_ef_sc_hd__decap_12
XFILLER_0_23_105 VGND VGND VPWR VPWR sky130_fd_sc_hd__decap_6
XFILLER_0_11_39 VGND VPWR VPWR VGND sky130_ef_sc_hd__decap_12
XFILLER_0_22_27 VGND VGND VPWR VPWR sky130_fd_sc_hd__fill_1
XFILLER_0_2_15 VGND VPWR VPWR VGND sky130_ef_sc_hd__decap_12
XFILLER_0_10_141 VGND VPWR VPWR VGND sky130_ef_sc_hd__decap_12
XFILLER_0_17_27 VGND VPWR VPWR VGND sky130_ef_sc_hd__decap_12
XFILLER_0_3_149 VGND VPWR VPWR VGND sky130_ef_sc_hd__decap_12
XFILLER_0_23_81 VGND VPWR VPWR VGND sky130_ef_sc_hd__decap_12
XFILLER_0_19_3 VGND VPWR VPWR VGND sky130_ef_sc_hd__decap_12
Xhold2 net6 VGND VGND VPWR VPWR net13 sky130_fd_sc_hd__dlygate4sd3_1
XFILLER_0_25_27 VGND VPWR VPWR VGND sky130_ef_sc_hd__decap_12
XFILLER_0_8_3 VGND VPWR VPWR VGND sky130_ef_sc_hd__decap_12
XFILLER_0_17_125 VGND VPWR VPWR VGND sky130_ef_sc_hd__decap_12
XFILLER_0_5_15 VGND VPWR VPWR VGND sky130_ef_sc_hd__decap_12
XFILLER_0_15_93 VGND VPWR VPWR VGND sky130_ef_sc_hd__decap_12
XFILLER_0_22_161 VGND VGND VPWR VPWR sky130_fd_sc_hd__fill_2
XFILLER_0_14_139 VGND VGND VPWR VPWR sky130_fd_sc_hd__fill_1
XFILLER_0_20_109 VGND VPWR VPWR VGND sky130_ef_sc_hd__decap_12
XFILLER_0_9_111 VGND VGND VPWR VPWR sky130_fd_sc_hd__fill_1
XFILLER_0_13_161 VGND VGND VPWR VPWR sky130_fd_sc_hd__fill_2
XFILLER_0_2_27 VGND VGND VPWR VPWR sky130_fd_sc_hd__fill_1
XFILLER_0_10_153 VGND VGND VPWR VPWR sky130_fd_sc_hd__decap_8
XTAP_TAPCELL_ROW_11_86 VGND VPWR sky130_fd_sc_hd__tapvpwrvgnd_1
XFILLER_0_12_83 VGND VGND VPWR VPWR sky130_fd_sc_hd__fill_1
XFILLER_0_17_39 VGND VPWR VPWR VGND sky130_ef_sc_hd__decap_12
XTAP_TAPCELL_ROW_7_76 VGND VPWR sky130_fd_sc_hd__tapvpwrvgnd_1
XFILLER_0_23_93 VGND VPWR VPWR VGND sky130_ef_sc_hd__decap_12
XFILLER_0_2_161 VGND VGND VPWR VPWR sky130_fd_sc_hd__fill_2
XFILLER_0_8_15 VGND VPWR VPWR VGND sky130_ef_sc_hd__decap_12
X_19_ _09_ VGND VGND VPWR VPWR _00_ sky130_fd_sc_hd__clkbuf_1
Xhold3 _08_ VGND VGND VPWR VPWR net14 sky130_fd_sc_hd__dlygate4sd3_1
XFILLER_0_14_29 VGND VPWR VPWR VGND sky130_ef_sc_hd__decap_12
XFILLER_0_20_83 VGND VGND VPWR VPWR sky130_fd_sc_hd__fill_1
XFILLER_0_25_39 VGND VPWR VPWR VGND sky130_ef_sc_hd__decap_12
XFILLER_0_0_82 VGND VGND VPWR VPWR sky130_fd_sc_hd__fill_2
XFILLER_0_17_137 VGND VPWR VPWR VGND sky130_ef_sc_hd__decap_12
XFILLER_0_5_27 VGND VPWR VPWR VGND sky130_ef_sc_hd__decap_12
XFILLER_0_22_29 VGND VPWR VPWR VGND sky130_ef_sc_hd__decap_12
XFILLER_0_10_121 VGND VPWR VPWR VGND sky130_ef_sc_hd__decap_12
XTAP_TAPCELL_ROW_11_87 VGND VPWR sky130_fd_sc_hd__tapvpwrvgnd_1
XTAP_TAPCELL_ROW_7_77 VGND VPWR sky130_fd_sc_hd__tapvpwrvgnd_1
XFILLER_0_8_27 VGND VGND VPWR VPWR sky130_fd_sc_hd__fill_1
XFILLER_0_18_83 VGND VGND VPWR VPWR sky130_fd_sc_hd__fill_1
X_18_ net7 net17 net3 VGND VGND VPWR VPWR _09_ sky130_fd_sc_hd__mux2_1
Xhold4 net8 VGND VGND VPWR VPWR net15 sky130_fd_sc_hd__dlygate4sd3_1
XFILLER_0_24_3 VGND VPWR VPWR VGND sky130_ef_sc_hd__decap_12