** sch_path: /foss/designs/projects/dpga-ieee-sscs-contest/xschem/ota_digpot-tb.sch
**.subckt ota_digpot-tb
Vdd vd GND 1.8
.save i(vdd)
Vc0 c0 GND {1.8*b0}
.save i(vc0)
Vc1 c1 GND {1.8*b1}
.save i(vc1)
Vc2 c2 GND {1.8*b2}
.save i(vc2)
Vc3 c3 GND {1.8*b3}
.save i(vc3)
Vc4 c4 GND {1.8*b4}
.save i(vc4)
Vc5 c5 GND {1.8*b5}
.save i(vc5)
Vc6 c6 GND {1.8*b6}
.save i(vc6)
Vc7 c7 GND {1.8*b7}
.save i(vc7)
Vss vs GND 0
.save i(vss)
Ibias GND ib 5.53u
Vgnd in2 GND dc 0.9
.save i(vgnd)
Vin in1 GND dc 0.9 ac 1
.save i(vin)
Cl out GND 4p m=1
x1 c5 c4 vd c6 c7 c0 c1 c2 c3 GND out in1 in2 ib ota_digpot_pex
**** begin user architecture code

.ac dec 2000 1 5Meg

*.tran 0.01m 10m
.end

.control
destroy all
save all
set color0=white
set color1=black
destroy all
run
let gain=abs(out)
plot gain
.endc


.param b7=1 b6=0 b5=0 b4=0 b3=0 b2=0 b1=0 b0=0

 .lib /foss/pdks/sky130A/libs.tech/ngspice/sky130.lib.spice tt
.include /foss/pdks/sky130A/libs.ref/sky130_fd_sc_hd/spice/sky130_fd_sc_hd.spice

**** end user architecture code
**.ends

* expanding   symbol:  projects/dpga-ieee-sscs-contest/xschem/ota_digpot_pex.sym # of pins=14
** sym_path: /foss/designs/projects/dpga-ieee-sscs-contest/xschem/ota_digpot_pex.sym
** sch_path: /foss/designs/projects/dpga-ieee-sscs-contest/xschem/ota_digpot_pex.sch
.subckt ota_digpot_pex c5 c4 vd c6 c7 c0 c1 c2 c3 gnd out in1 in2 ib
*.ipin in1
*.ipin in2
*.iopin ib
*.opin out
*.iopin gnd
*.ipin c0
*.ipin c1
*.ipin c2
*.ipin c3
*.ipin c4
*.ipin c5
*.ipin c6
*.ipin c7
*.iopin vd
**** begin user architecture code


* NGSPICE file created from ota_digpot.ext - technology: sky130A

*.subckt ota_digpot c5 c4 c6 c7 c0 c1 c2 c3 out in1 in2 ib gnd vd
X0 in1.t61 digpotp_0.tg_3.nctrl.t2 digpotp_0.tg_3.b.t10 vd.t55 sky130_fd_pr__pfet_01v8 ad=0p pd=0u
+ as=0p ps=0u w=5e+06u l=150000u
X1 digpotp_0.tg_2.b.t13 digpotp_0.tg_2.nctrl.t2 in1.t160 vd.t112 sky130_fd_pr__pfet_01v8 ad=0p pd=0u
+ as=0p ps=0u w=5e+06u l=150000u
X2 digpotp_0.tg_6.b.t17 digpotp_0.tg_6.nctrl.t2 in1.t88 vd.t72 sky130_fd_pr__pfet_01v8 ad=0p pd=0u
+ as=0p ps=0u w=5e+06u l=150000u
X3 in1.t171 c3.t0 digpotp_0.tg_4.b.t13 gnd sky130_fd_pr__nfet_01v8 ad=0p pd=0u as=0p ps=0u w=5e+06u
+ l=150000u
X4 digpotp_0.tg_3.b.t13 digpotp_0.n8.t2 gnd sky130_fd_pr__res_xhigh_po_0p35 l=2.62e+06u
X5 in1.t109 digpotp_0.tg_5.nctrl.t2 digpotp_0.tg_5.b.t11 vd.t84 sky130_fd_pr__pfet_01v8 ad=0p pd=0u
+ as=0p ps=0u w=5e+06u l=150000u
X6 in1.t26 c3.t1 digpotp_0.tg_4.b.t12 gnd sky130_fd_pr__nfet_01v8 ad=0p pd=0u as=0p ps=0u w=5e+06u
+ l=150000u
X7 digpotp_0.tg_4.nctrl.t0 c3.t2 gnd.t2 gnd.t1 sky130_fd_pr__nfet_01v8 ad=0p pd=0u as=0p ps=0u
+ w=1e+06u l=150000u
X8 digpotp_0.n8.t7 a_21466_5342# gnd sky130_fd_pr__res_xhigh_po_0p35 l=5.42e+06u
X9 in1.t49 digpotp_0.tg_4.nctrl.t2 digpotp_0.tg_4.b.t17 vd.t43 sky130_fd_pr__pfet_01v8 ad=0p pd=0u
+ as=0p ps=0u w=5e+06u l=150000u
X10 digpotp_0.tg_4.b.t11 c3.t3 in1.t169 gnd sky130_fd_pr__nfet_01v8 ad=0p pd=0u as=0p ps=0u w=5e+06u
+ l=150000u
X11 in1.t174 c3.t4 digpotp_0.tg_4.b.t10 gnd sky130_fd_pr__nfet_01v8 ad=0p pd=0u as=0p ps=0u w=5e+06u
+ l=150000u
X12 digpotp_0.tg_4.b.t9 c3.t5 in1.t30 gnd sky130_fd_pr__nfet_01v8 ad=0p pd=0u as=0p ps=0u w=5e+06u
+ l=150000u
X13 digpotp_0.tg_5.nctrl.t0 c2.t0 vd.t10 vd.t9 sky130_fd_pr__pfet_01v8 ad=0p pd=0u as=0p ps=0u
+ w=3e+06u l=150000u
X14 digpotp_0.tg_4.b.t8 c3.t6 in1.t39 gnd sky130_fd_pr__nfet_01v8 ad=0p pd=0u as=0p ps=0u w=5e+06u
+ l=150000u
X15 in1.t47 c1.t0 digpotp_0.tg_6.b.t2 gnd sky130_fd_pr__nfet_01v8 ad=0p pd=0u as=0p ps=0u w=5e+06u
+ l=150000u
X16 in1.t78 c3.t7 digpotp_0.tg_4.b.t7 gnd sky130_fd_pr__nfet_01v8 ad=0p pd=0u as=0p ps=0u w=5e+06u
+ l=150000u
X17 digpotp_0.tg_4.b.t6 c3.t8 in1.t108 gnd sky130_fd_pr__nfet_01v8 ad=0p pd=0u as=0p ps=0u w=5e+06u
+ l=150000u
X18 in1.t91 digpotp_0.tg_1.nctrl.t2 digpotp_0.tg_1.b.t17 vd.t75 sky130_fd_pr__pfet_01v8 ad=0p pd=0u
+ as=0p ps=0u w=5e+06u l=150000u
X19 in1.t60 digpotp_0.tg_3.nctrl.t3 digpotp_0.tg_3.b.t9 vd.t54 sky130_fd_pr__pfet_01v8 ad=0p pd=0u
+ as=0p ps=0u w=5e+06u l=150000u
X20 digpotp_0.tg_6.b.t22 c1.t1 in1.t165 gnd sky130_fd_pr__nfet_01v8 ad=0p pd=0u as=0p ps=0u w=5e+06u
+ l=150000u
X21 in1.t187 c1.t2 digpotp_0.tg_6.b.t24 gnd sky130_fd_pr__nfet_01v8 ad=0p pd=0u as=0p ps=0u w=5e+06u
+ l=150000u
X22 in1.t133 c1.t3 digpotp_0.tg_6.b.t19 gnd sky130_fd_pr__nfet_01v8 ad=0p pd=0u as=0p ps=0u w=5e+06u
+ l=150000u
X23 digpotp_0.tg_6.b.t5 c1.t4 in1.t110 gnd sky130_fd_pr__nfet_01v8 ad=0p pd=0u as=0p ps=0u w=5e+06u
+ l=150000u
X24 digpotp_0.n8.t5 a_26666_5342# gnd sky130_fd_pr__res_xhigh_po_0p35 l=5.42e+06u
X25 vd.t5 ib.t4 out.t3 vd.t4 sky130_fd_pr__pfet_01v8 ad=0p pd=0u as=0p ps=0u w=7.5e+06u l=1e+06u
X26 in1.t153 digpotp_0.tg_2.nctrl.t3 digpotp_0.tg_2.b.t12 vd.t108 sky130_fd_pr__pfet_01v8 ad=0p
+ pd=0u as=0p ps=0u w=5e+06u l=150000u
X27 in1.t28 digpotp_0.tg_7.nctrl.t2 digpotp_0.tg_7.b.t23 vd.t23 sky130_fd_pr__pfet_01v8 ad=0p pd=0u
+ as=0p ps=0u w=5e+06u l=150000u
X28 digpotp_0.tg_6.b.t4 c1.t5 in1.t99 gnd sky130_fd_pr__nfet_01v8 ad=0p pd=0u as=0p ps=0u w=5e+06u
+ l=150000u
X29 in1.t81 c4.t0 digpotp_0.tg_3.b.t15 gnd sky130_fd_pr__nfet_01v8 ad=0p pd=0u as=0p ps=0u w=5e+06u
+ l=150000u
X30 in1.t19 digpotp_0.tg_2.nctrl.t4 digpotp_0.tg_2.b.t11 vd.t21 sky130_fd_pr__pfet_01v8 ad=0p pd=0u
+ as=0p ps=0u w=5e+06u l=150000u
X31 in1.t156 c1.t6 digpotp_0.tg_6.b.t21 gnd sky130_fd_pr__nfet_01v8 ad=0p pd=0u as=0p ps=0u w=5e+06u
+ l=150000u
X32 digpotp_0.tg_6.b.t20 c1.t7 in1.t147 gnd sky130_fd_pr__nfet_01v8 ad=0p pd=0u as=0p ps=0u w=5e+06u
+ l=150000u
X33 digpotp_0.tg_3.b.t17 c4.t1 in1.t94 gnd sky130_fd_pr__nfet_01v8 ad=0p pd=0u as=0p ps=0u w=5e+06u
+ l=150000u
X34 in1.t116 c4.t2 digpotp_0.tg_3.b.t19 gnd sky130_fd_pr__nfet_01v8 ad=0p pd=0u as=0p ps=0u w=5e+06u
+ l=150000u
X35 w_30480_5540.t2 ib.t5 vd.t115 vd.t114 sky130_fd_pr__pfet_01v8 ad=0p pd=0u as=0p ps=0u w=3e+06u
+ l=1e+06u
X36 digpotp_0.tg_6.b.t16 digpotp_0.tg_6.nctrl.t3 in1.t63 vd.t59 sky130_fd_pr__pfet_01v8 ad=0p pd=0u
+ as=0p ps=0u w=5e+06u l=150000u
X37 digpotp_0.tg_7.b.t22 digpotp_0.tg_7.nctrl.t3 in1.t29 vd.t24 sky130_fd_pr__pfet_01v8 ad=0p pd=0u
+ as=0p ps=0u w=5e+06u l=150000u
X38 vd.t34 ib.t2 ib.t3 vd.t33 sky130_fd_pr__pfet_01v8 ad=0p pd=0u as=0p ps=0u w=3e+06u l=1e+06u
X39 out.t4 a_31610_5759.t5 gnd.t3 gnd sky130_fd_pr__nfet_01v8 ad=0p pd=0u as=0p ps=0u w=3e+06u
+ l=1e+06u
X40 in1.t179 c4.t3 digpotp_0.tg_3.b.t24 gnd sky130_fd_pr__nfet_01v8 ad=0p pd=0u as=0p ps=0u w=5e+06u
+ l=150000u
X41 digpotp_0.tg_3.b.t18 c4.t4 in1.t104 gnd sky130_fd_pr__nfet_01v8 ad=0p pd=0u as=0p ps=0u w=5e+06u
+ l=150000u
X42 in1.t180 digpotp_0.tg_0.nctrl.t2 digpotp_0.tg_0.b.t14 vd.t122 sky130_fd_pr__pfet_01v8 ad=0p
+ pd=0u as=0p ps=0u w=5e+06u l=150000u
X43 in1.t12 c0.t0 digpotp_0.tg_7.b.t0 gnd sky130_fd_pr__nfet_01v8 ad=0p pd=0u as=0p ps=0u w=5e+06u
+ l=150000u
X44 digpotp_0.tg_3.b.t14 c4.t5 in1.t77 gnd sky130_fd_pr__nfet_01v8 ad=0p pd=0u as=0p ps=0u w=5e+06u
+ l=150000u
X45 ib.t1 ib.t0 vd.t57 vd.t56 sky130_fd_pr__pfet_01v8 ad=0p pd=0u as=0p ps=0u w=3e+06u l=1e+06u
X46 gnd.t26 a_31610_5759.t6 out.t7 gnd sky130_fd_pr__nfet_01v8 ad=0p pd=0u as=0p ps=0u w=3e+06u
+ l=1e+06u
X47 in1.t176 c4.t6 digpotp_0.tg_3.b.t23 gnd sky130_fd_pr__nfet_01v8 ad=0p pd=0u as=0p ps=0u w=5e+06u
+ l=150000u
X48 digpotp_0.tg_4.b.t14 digpotp_0.n8.t1 gnd sky130_fd_pr__res_xhigh_po_0p35 l=5.42e+06u
X49 digpotp_0.tg_1.b.t16 digpotp_0.tg_1.nctrl.t3 in1.t11 vd.t18 sky130_fd_pr__pfet_01v8 ad=0p pd=0u
+ as=0p ps=0u w=5e+06u l=150000u
X50 in1.t181 digpotp_0.tg_6.nctrl.t4 digpotp_0.tg_6.b.t15 vd.t123 sky130_fd_pr__pfet_01v8 ad=0p
+ pd=0u as=0p ps=0u w=5e+06u l=150000u
X51 in1.t13 c0.t1 digpotp_0.tg_7.b.t1 gnd sky130_fd_pr__nfet_01v8 ad=0p pd=0u as=0p ps=0u w=5e+06u
+ l=150000u
X52 digpotp_0.tg_7.b.t7 c0.t2 in1.t96 gnd sky130_fd_pr__nfet_01v8 ad=0p pd=0u as=0p ps=0u w=5e+06u
+ l=150000u
X53 digpotp_0.tg_7.b.t21 digpotp_0.tg_7.nctrl.t4 in1.t173 vd.t119 sky130_fd_pr__pfet_01v8 ad=0p
+ pd=0u as=0p ps=0u w=5e+06u l=150000u
X54 digpotp_0.tg_7.b.t2 c0.t3 in1.t14 gnd sky130_fd_pr__nfet_01v8 ad=0p pd=0u as=0p ps=0u w=5e+06u
+ l=150000u
X55 a_28256_3826# a_27938_5342# gnd sky130_fd_pr__res_xhigh_po_0p35 l=5.42e+06u
X56 digpotp_0.tg_2.b.t10 digpotp_0.tg_2.nctrl.t5 in1.t184 vd.t126 sky130_fd_pr__pfet_01v8 ad=0p
+ pd=0u as=0p ps=0u w=5e+06u l=150000u
X57 digpotp_0.tg_0.b.t22 digpotp_0.n8.t8 gnd sky130_fd_pr__res_high_po_0p35 l=1e+06u
X58 in1.t32 digpotp_0.tg_6.nctrl.t5 digpotp_0.tg_6.b.t14 vd.t28 sky130_fd_pr__pfet_01v8 ad=0p pd=0u
+ as=0p ps=0u w=5e+06u l=150000u
X59 in1.t115 digpotp_0.tg_7.nctrl.t5 digpotp_0.tg_7.b.t20 vd.t90 sky130_fd_pr__pfet_01v8 ad=0p pd=0u
+ as=0p ps=0u w=5e+06u l=150000u
X60 digpotp_0.tg_0.b.t13 digpotp_0.tg_0.nctrl.t3 in1.t41 vd.t39 sky130_fd_pr__pfet_01v8 ad=0p pd=0u
+ as=0p ps=0u w=5e+06u l=150000u
X61 in1.t59 digpotp_0.tg_3.nctrl.t4 digpotp_0.tg_3.b.t2 vd.t53 sky130_fd_pr__pfet_01v8 ad=0p pd=0u
+ as=0p ps=0u w=5e+06u l=150000u
X62 digpotp_0.tg_5.b.t10 digpotp_0.tg_5.nctrl.t3 in1.t40 vd.t36 sky130_fd_pr__pfet_01v8 ad=0p pd=0u
+ as=0p ps=0u w=5e+06u l=150000u
X63 out.t6 a_26666_8882# gnd.t18 sky130_fd_pr__res_xhigh_po_0p35 l=5.42e+06u
X64 digpotp_0.tg_5.b.t12 a_21466_5342# gnd sky130_fd_pr__res_xhigh_po_0p35 l=5.42e+06u
X65 digpotp_0.tg_1.nctrl.t1 c6.t0 gnd.t17 gnd.t16 sky130_fd_pr__nfet_01v8 ad=0p pd=0u as=0p ps=0u
+ w=1e+06u l=150000u
X66 in1.t62 digpotp_0.tg_0.nctrl.t4 digpotp_0.tg_0.b.t12 vd.t58 sky130_fd_pr__pfet_01v8 ad=0p pd=0u
+ as=0p ps=0u w=5e+06u l=150000u
X67 in1.t90 digpotp_0.tg_1.nctrl.t4 digpotp_0.tg_1.b.t15 vd.t74 sky130_fd_pr__pfet_01v8 ad=0p pd=0u
+ as=0p ps=0u w=5e+06u l=150000u
X68 digpotp_0.tg_3.b.t1 digpotp_0.tg_3.nctrl.t5 in1.t58 vd.t52 sky130_fd_pr__pfet_01v8 ad=0p pd=0u
+ as=0p ps=0u w=5e+06u l=150000u
X69 in1.t31 digpotp_0.tg_5.nctrl.t4 digpotp_0.tg_5.b.t9 vd.t27 sky130_fd_pr__pfet_01v8 ad=0p pd=0u
+ as=0p ps=0u w=5e+06u l=150000u
X70 digpotp_0.tg_0.b.t17 c7.t0 in1.t38 gnd sky130_fd_pr__nfet_01v8 ad=0p pd=0u as=0p ps=0u w=5e+06u
+ l=150000u
X71 digpotp_0.n8.t6 a_24266_5342# gnd sky130_fd_pr__res_xhigh_po_0p35 l=5.42e+06u
X72 digpotp_0.tg_2.nctrl.t1 c5.t0 gnd.t22 gnd.t21 sky130_fd_pr__nfet_01v8 ad=0p pd=0u as=0p ps=0u
+ w=1e+06u l=150000u
X73 digpotp_0.tg_4.b.t23 digpotp_0.tg_4.nctrl.t3 in1.t162 vd.t113 sky130_fd_pr__pfet_01v8 ad=0p
+ pd=0u as=0p ps=0u w=5e+06u l=150000u
X74 digpotp_0.tg_0.b.t11 digpotp_0.tg_0.nctrl.t5 in1.t106 vd.t82 sky130_fd_pr__pfet_01v8 ad=0p pd=0u
+ as=0p ps=0u w=5e+06u l=150000u
X75 digpotp_0.tg_1.b.t3 c6.t1 in1.t21 gnd sky130_fd_pr__nfet_01v8 ad=0p pd=0u as=0p ps=0u w=5e+06u
+ l=150000u
X76 digpotp_0.tg_2.b.t9 digpotp_0.tg_2.nctrl.t6 in1.t185 vd.t127 sky130_fd_pr__pfet_01v8 ad=0p pd=0u
+ as=0p ps=0u w=5e+06u l=150000u
X77 a_26984_3826# a_26666_5342# gnd sky130_fd_pr__res_xhigh_po_0p35 l=5.42e+06u
X78 a_30618_4910.t4 digpotp_0.n8.t9 w_30480_5540.t10 w_30480_5540.t9 sky130_fd_pr__pfet_01v8 ad=0p
+ pd=0u as=0p ps=0u w=3e+06u l=150000u
X79 digpotp_0.tg_3.b.t12 digpotp_0.tg_3.nctrl.t6 in1.t57 vd.t51 sky130_fd_pr__pfet_01v8 ad=0p pd=0u
+ as=0p ps=0u w=5e+06u l=150000u
X80 in1.t182 digpotp_0.tg_0.nctrl.t6 digpotp_0.tg_0.b.t10 vd.t124 sky130_fd_pr__pfet_01v8 ad=0p
+ pd=0u as=0p ps=0u w=5e+06u l=150000u
X81 in1.t164 digpotp_0.tg_7.nctrl.t6 digpotp_0.tg_7.b.t19 vd.t117 sky130_fd_pr__pfet_01v8 ad=0p
+ pd=0u as=0p ps=0u w=5e+06u l=150000u
X82 digpotp_0.tg_7.nctrl.t0 c0.t4 vd.t30 vd.t29 sky130_fd_pr__pfet_01v8 ad=0p pd=0u as=0p ps=0u
+ w=3e+06u l=150000u
X83 digpotp_0.tg_5.nctrl.t1 c2.t1 gnd.t6 gnd.t5 sky130_fd_pr__nfet_01v8 ad=0p pd=0u as=0p ps=0u
+ w=1e+06u l=150000u
X84 a_28256_7366# a_27938_8882# gnd.t29 sky130_fd_pr__res_xhigh_po_0p35 l=5.42e+06u
X85 in1.t56 digpotp_0.tg_3.nctrl.t7 digpotp_0.tg_3.b.t11 vd.t50 sky130_fd_pr__pfet_01v8 ad=0p pd=0u
+ as=0p ps=0u w=5e+06u l=150000u
X86 digpotp_0.tg_5.b.t8 digpotp_0.tg_5.nctrl.t5 in1.t114 vd.t89 sky130_fd_pr__pfet_01v8 ad=0p pd=0u
+ as=0p ps=0u w=5e+06u l=150000u
X87 digpotp_0.tg_2.b.t8 digpotp_0.tg_2.nctrl.t7 in1.t65 vd.t61 sky130_fd_pr__pfet_01v8 ad=0p pd=0u
+ as=0p ps=0u w=5e+06u l=150000u
X88 digpotp_0.tg_0.nctrl.t1 c7.t1 vd.t94 vd.t93 sky130_fd_pr__pfet_01v8 ad=0p pd=0u as=0p ps=0u
+ w=3e+06u l=150000u
X89 in1.t37 digpotp_0.tg_6.nctrl.t6 digpotp_0.tg_6.b.t13 vd.t35 sky130_fd_pr__pfet_01v8 ad=0p pd=0u
+ as=0p ps=0u w=5e+06u l=150000u
X90 gnd.t11 a_31610_5759.t7 out.t5 gnd sky130_fd_pr__nfet_01v8 ad=0p pd=0u as=0p ps=0u w=3e+06u
+ l=1e+06u
X91 digpotp_0.tg_4.b.t16 digpotp_0.tg_4.nctrl.t4 in1.t45 vd.t42 sky130_fd_pr__pfet_01v8 ad=0p pd=0u
+ as=0p ps=0u w=5e+06u l=150000u
X92 in1.t177 c2.t2 digpotp_0.tg_5.b.t23 gnd sky130_fd_pr__nfet_01v8 ad=0p pd=0u as=0p ps=0u w=5e+06u
+ l=150000u
X93 a_24584_3826# a_24902_5342# gnd sky130_fd_pr__res_xhigh_po_0p35 l=5.42e+06u
X94 a_28256_3826# a_28574_5342# gnd sky130_fd_pr__res_xhigh_po_0p35 l=5.42e+06u
X95 digpotp_0.tg_5.b.t19 c2.t3 in1.t139 gnd sky130_fd_pr__nfet_01v8 ad=0p pd=0u as=0p ps=0u w=5e+06u
+ l=150000u
X96 digpotp_0.tg_0.b.t9 digpotp_0.tg_0.nctrl.t7 in1.t150 vd.t105 sky130_fd_pr__pfet_01v8 ad=0p pd=0u
+ as=0p ps=0u w=5e+06u l=150000u
X97 in1.t55 digpotp_0.tg_3.nctrl.t8 digpotp_0.tg_3.b.t6 vd.t49 sky130_fd_pr__pfet_01v8 ad=0p pd=0u
+ as=0p ps=0u w=5e+06u l=150000u
X98 digpotp_0.tg_5.b.t13 c2.t4 in1.t46 gnd sky130_fd_pr__nfet_01v8 ad=0p pd=0u as=0p ps=0u w=5e+06u
+ l=150000u
X99 in1.t145 c2.t5 digpotp_0.tg_5.b.t20 gnd sky130_fd_pr__nfet_01v8 ad=0p pd=0u as=0p ps=0u w=5e+06u
+ l=150000u
X100 in1.t132 c5.t1 digpotp_0.tg_2.b.t18 gnd sky130_fd_pr__nfet_01v8 ad=0p pd=0u as=0p ps=0u
+ w=5e+06u l=150000u
X101 in1.t163 digpotp_0.tg_7.nctrl.t7 digpotp_0.tg_7.b.t18 vd.t116 sky130_fd_pr__pfet_01v8 ad=0p
+ pd=0u as=0p ps=0u w=5e+06u l=150000u
X102 out a_31610_5759.t2 sky130_fd_pr__cap_mim_m3_1 l=1.8e+07u w=1.8e+07u
X103 a_26984_7366# a_26666_8882# gnd.t12 sky130_fd_pr__res_xhigh_po_0p35 l=5.42e+06u
X104 in1.t43 digpotp_0.tg_2.nctrl.t8 digpotp_0.tg_2.b.t7 vd.t41 sky130_fd_pr__pfet_01v8 ad=0p pd=0u
+ as=0p ps=0u w=5e+06u l=150000u
X105 digpotp_0.tg_2.b.t0 c5.t2 in1.t48 gnd sky130_fd_pr__nfet_01v8 ad=0p pd=0u as=0p ps=0u w=5e+06u
+ l=150000u
X106 in1.t128 c5.t3 digpotp_0.tg_2.b.t15 gnd sky130_fd_pr__nfet_01v8 ad=0p pd=0u as=0p ps=0u
+ w=5e+06u l=150000u
X107 digpotp_0.tg_3.nctrl.t0 c4.t7 vd.t14 vd.t13 sky130_fd_pr__pfet_01v8 ad=0p pd=0u as=0p ps=0u
+ w=3e+06u l=150000u
X108 digpotp_0.tg_6.b.t12 digpotp_0.tg_6.nctrl.t7 in1.t86 vd.t70 sky130_fd_pr__pfet_01v8 ad=0p pd=0u
+ as=0p ps=0u w=5e+06u l=150000u
X109 digpotp_0.tg_2.b.t16 c5.t4 in1.t129 gnd sky130_fd_pr__nfet_01v8 ad=0p pd=0u as=0p ps=0u
+ w=5e+06u l=150000u
X110 in1.t149 digpotp_0.tg_0.nctrl.t8 digpotp_0.tg_0.b.t8 vd.t104 sky130_fd_pr__pfet_01v8 ad=0p
+ pd=0u as=0p ps=0u w=5e+06u l=150000u
X111 a_24584_3826# a_24266_5342# gnd sky130_fd_pr__res_xhigh_po_0p35 l=5.42e+06u
X112 in1.t138 digpotp_0.tg_4.nctrl.t5 digpotp_0.tg_4.b.t20 vd.t100 sky130_fd_pr__pfet_01v8 ad=0p
+ pd=0u as=0p ps=0u w=5e+06u l=150000u
X113 a_31610_5759.t4 in2.t0 w_30480_5540.t14 w_30480_5540.t13 sky130_fd_pr__pfet_01v8 ad=0p pd=0u
+ as=0p ps=0u w=3e+06u l=150000u
X114 in1.t178 digpotp_0.tg_6.nctrl.t8 digpotp_0.tg_6.b.t11 vd.t121 sky130_fd_pr__pfet_01v8 ad=0p
+ pd=0u as=0p ps=0u w=5e+06u l=150000u
X115 digpotp_0.tg_1.b.t14 digpotp_0.tg_1.nctrl.t5 in1.t74 vd.t66 sky130_fd_pr__pfet_01v8 ad=0p pd=0u
+ as=0p ps=0u w=5e+06u l=150000u
X116 digpotp_0.tg_5.b.t7 digpotp_0.tg_5.nctrl.t6 in1.t113 vd.t88 sky130_fd_pr__pfet_01v8 ad=0p pd=0u
+ as=0p ps=0u w=5e+06u l=150000u
X117 in1.t25 c7.t2 digpotp_0.tg_0.b.t16 gnd sky130_fd_pr__nfet_01v8 ad=0p pd=0u as=0p ps=0u w=5e+06u
+ l=150000u
X118 digpotp_0.tg_0.b.t1 c7.t3 in1.t4 gnd sky130_fd_pr__nfet_01v8 ad=0p pd=0u as=0p ps=0u w=5e+06u
+ l=150000u
X119 a_28256_7366# a_28574_8882# gnd.t13 sky130_fd_pr__res_xhigh_po_0p35 l=5.42e+06u
X120 digpotp_0.tg_1.b.t18 digpotp_0.n8.t3 gnd sky130_fd_pr__res_xhigh_po_0p35 l=520000u
X121 in1.t15 c6.t2 digpotp_0.tg_1.b.t0 gnd sky130_fd_pr__nfet_01v8 ad=0p pd=0u as=0p ps=0u w=5e+06u
+ l=150000u
X122 in1.t7 c7.t4 digpotp_0.tg_0.b.t2 gnd sky130_fd_pr__nfet_01v8 ad=0p pd=0u as=0p ps=0u w=5e+06u
+ l=150000u
X123 in1.t64 digpotp_0.tg_6.nctrl.t9 digpotp_0.tg_6.b.t10 vd.t60 sky130_fd_pr__pfet_01v8 ad=0p pd=0u
+ as=0p ps=0u w=5e+06u l=150000u
X124 digpotp_0.tg_1.b.t24 c6.t3 in1.t124 gnd sky130_fd_pr__nfet_01v8 ad=0p pd=0u as=0p ps=0u
+ w=5e+06u l=150000u
X125 digpotp_0.tg_0.b.t7 digpotp_0.tg_0.nctrl.t9 in1.t148 vd.t103 sky130_fd_pr__pfet_01v8 ad=0p
+ pd=0u as=0p ps=0u w=5e+06u l=150000u
X126 in1.t54 digpotp_0.tg_3.nctrl.t9 digpotp_0.tg_3.b.t5 vd.t48 sky130_fd_pr__pfet_01v8 ad=0p pd=0u
+ as=0p ps=0u w=5e+06u l=150000u
X127 digpotp_0.tg_5.b.t6 digpotp_0.tg_5.nctrl.t7 in1.t1 vd.t3 sky130_fd_pr__pfet_01v8 ad=0p pd=0u
+ as=0p ps=0u w=5e+06u l=150000u
X128 in1.t24 c6.t4 digpotp_0.tg_1.b.t4 gnd sky130_fd_pr__nfet_01v8 ad=0p pd=0u as=0p ps=0u w=5e+06u
+ l=150000u
X129 in1.t127 digpotp_0.tg_5.nctrl.t8 digpotp_0.tg_5.b.t5 vd.t97 sky130_fd_pr__pfet_01v8 ad=0p pd=0u
+ as=0p ps=0u w=5e+06u l=150000u
X130 vd.t80 ib.t6 out.t2 vd.t79 sky130_fd_pr__pfet_01v8 ad=0p pd=0u as=0p ps=0u w=7.5e+06u l=1e+06u
X131 digpotp_0.tg_1.b.t13 digpotp_0.tg_1.nctrl.t6 in1.t76 vd.t68 sky130_fd_pr__pfet_01v8 ad=0p pd=0u
+ as=0p ps=0u w=5e+06u l=150000u
X132 digpotp_0.tg_6.nctrl.t0 c1.t8 vd.t1 vd.t0 sky130_fd_pr__pfet_01v8 ad=0p pd=0u as=0p ps=0u
+ w=3e+06u l=150000u
X133 a_26984_3826# a_27302_5342# gnd sky130_fd_pr__res_xhigh_po_0p35 l=5.42e+06u
X134 digpotp_0.tg_7.b.t8 a_28574_5342# gnd sky130_fd_pr__res_xhigh_po_0p35 l=5.42e+06u
X135 digpotp_0.tg_7.nctrl.t1 c0.t5 gnd.t25 gnd.t24 sky130_fd_pr__nfet_01v8 ad=0p pd=0u as=0p ps=0u
+ w=1e+06u l=150000u
X136 w_30480_5540.t1 ib.t7 vd.t86 vd.t85 sky130_fd_pr__pfet_01v8 ad=0p pd=0u as=0p ps=0u w=3e+06u
+ l=1e+06u
X137 out.t1 ib.t8 vd.t38 vd.t37 sky130_fd_pr__pfet_01v8 ad=0p pd=0u as=0p ps=0u w=7.5e+06u l=1e+06u
X138 digpotp_0.tg_2.b.t6 digpotp_0.tg_2.nctrl.t9 in1.t34 vd.t31 sky130_fd_pr__pfet_01v8 ad=0p pd=0u
+ as=0p ps=0u w=5e+06u l=150000u
X139 digpotp_0.tg_4.b.t5 c3.t9 in1.t167 gnd sky130_fd_pr__nfet_01v8 ad=0p pd=0u as=0p ps=0u w=5e+06u
+ l=150000u
X140 in1.t154 digpotp_0.tg_4.nctrl.t6 digpotp_0.tg_4.b.t21 vd.t109 sky130_fd_pr__pfet_01v8 ad=0p
+ pd=0u as=0p ps=0u w=5e+06u l=150000u
X141 digpotp_0.tg_7.b.t17 digpotp_0.tg_7.nctrl.t8 in1.t102 vd.t77 sky130_fd_pr__pfet_01v8 ad=0p
+ pd=0u as=0p ps=0u w=5e+06u l=150000u
X142 in1.t27 c1.t9 digpotp_0.tg_6.b.t0 gnd sky130_fd_pr__nfet_01v8 ad=0p pd=0u as=0p ps=0u w=5e+06u
+ l=150000u
X143 digpotp_0.tg_0.nctrl.t0 c7.t5 gnd.t10 gnd.t9 sky130_fd_pr__nfet_01v8 ad=0p pd=0u as=0p ps=0u
+ w=1e+06u l=150000u
X144 a_30618_4910.t3 digpotp_0.n8.t10 w_30480_5540.t8 w_30480_5540.t7 sky130_fd_pr__pfet_01v8 ad=0p
+ pd=0u as=0p ps=0u w=3e+06u l=150000u
X145 in1.t151 digpotp_0.tg_0.nctrl.t10 digpotp_0.tg_0.b.t6 vd.t106 sky130_fd_pr__pfet_01v8 ad=0p
+ pd=0u as=0p ps=0u w=5e+06u l=150000u
X146 digpotp_0.tg_3.b.t4 digpotp_0.tg_3.nctrl.t10 in1.t53 vd.t47 sky130_fd_pr__pfet_01v8 ad=0p pd=0u
+ as=0p ps=0u w=5e+06u l=150000u
X147 digpotp_0.tg_6.b.t18 c1.t10 in1.t125 gnd sky130_fd_pr__nfet_01v8 ad=0p pd=0u as=0p ps=0u
+ w=5e+06u l=150000u
X148 in1.t175 digpotp_0.tg_7.nctrl.t9 digpotp_0.tg_7.b.t16 vd.t120 sky130_fd_pr__pfet_01v8 ad=0p
+ pd=0u as=0p ps=0u w=5e+06u l=150000u
X149 digpotp_0.tg_5.b.t14 c2.t6 in1.t68 gnd sky130_fd_pr__nfet_01v8 ad=0p pd=0u as=0p ps=0u w=5e+06u
+ l=150000u
X150 digpotp_0.tg_6.b.t1 c1.t11 in1.t44 gnd sky130_fd_pr__nfet_01v8 ad=0p pd=0u as=0p ps=0u w=5e+06u
+ l=150000u
X151 in1.t159 c2.t7 digpotp_0.tg_5.b.t21 gnd sky130_fd_pr__nfet_01v8 ad=0p pd=0u as=0p ps=0u
+ w=5e+06u l=150000u
X152 digpotp_0.tg_5.b.t16 c2.t8 in1.t100 gnd sky130_fd_pr__nfet_01v8 ad=0p pd=0u as=0p ps=0u
+ w=5e+06u l=150000u
X153 in1.t82 c4.t8 digpotp_0.tg_3.b.t16 gnd sky130_fd_pr__nfet_01v8 ad=0p pd=0u as=0p ps=0u w=5e+06u
+ l=150000u
X154 in1.t69 digpotp_0.tg_1.nctrl.t7 digpotp_0.tg_1.b.t12 vd.t63 sky130_fd_pr__pfet_01v8 ad=0p pd=0u
+ as=0p ps=0u w=5e+06u l=150000u
X155 digpotp_0.tg_2.b.t5 digpotp_0.tg_2.nctrl.t10 in1.t157 vd.t110 sky130_fd_pr__pfet_01v8 ad=0p
+ pd=0u as=0p ps=0u w=5e+06u l=150000u
X156 in1.t72 c2.t9 digpotp_0.tg_5.b.t15 gnd sky130_fd_pr__nfet_01v8 ad=0p pd=0u as=0p ps=0u w=5e+06u
+ l=150000u
X157 digpotp_0.tg_3.b.t0 c4.t9 in1.t23 gnd sky130_fd_pr__nfet_01v8 ad=0p pd=0u as=0p ps=0u w=5e+06u
+ l=150000u
X158 digpotp_0.tg_2.b.t17 c5.t5 in1.t130 gnd sky130_fd_pr__nfet_01v8 ad=0p pd=0u as=0p ps=0u
+ w=5e+06u l=150000u
X159 in1.t75 digpotp_0.tg_6.nctrl.t10 digpotp_0.tg_6.b.t9 vd.t67 sky130_fd_pr__pfet_01v8 ad=0p pd=0u
+ as=0p ps=0u w=5e+06u l=150000u
X160 digpotp_0.tg_3.b.t21 c4.t10 in1.t118 gnd sky130_fd_pr__nfet_01v8 ad=0p pd=0u as=0p ps=0u
+ w=5e+06u l=150000u
X161 in1.t170 c4.t11 digpotp_0.tg_3.b.t22 gnd sky130_fd_pr__nfet_01v8 ad=0p pd=0u as=0p ps=0u
+ w=5e+06u l=150000u
X162 digpotp_0.tg_2.b.t24 c5.t6 in1.t155 gnd sky130_fd_pr__nfet_01v8 ad=0p pd=0u as=0p ps=0u
+ w=5e+06u l=150000u
X163 in1.t136 c5.t7 digpotp_0.tg_2.b.t21 gnd sky130_fd_pr__nfet_01v8 ad=0p pd=0u as=0p ps=0u
+ w=5e+06u l=150000u
X164 digpotp_0.tg_4.b.t24 digpotp_0.tg_4.nctrl.t7 in1.t190 vd.t129 sky130_fd_pr__pfet_01v8 ad=0p
+ pd=0u as=0p ps=0u w=5e+06u l=150000u
X165 in1.t93 c0.t6 digpotp_0.tg_7.b.t6 gnd sky130_fd_pr__nfet_01v8 ad=0p pd=0u as=0p ps=0u w=5e+06u
+ l=150000u
X166 a_27620_3826# a_27938_5342# gnd sky130_fd_pr__res_xhigh_po_0p35 l=5.42e+06u
X167 in1.t134 c5.t8 digpotp_0.tg_2.b.t19 gnd sky130_fd_pr__nfet_01v8 ad=0p pd=0u as=0p ps=0u
+ w=5e+06u l=150000u
X168 digpotp_0.tg_2.b.t22 c5.t9 in1.t142 gnd sky130_fd_pr__nfet_01v8 ad=0p pd=0u as=0p ps=0u
+ w=5e+06u l=150000u
X169 digpotp_0.tg_7.b.t4 c0.t7 in1.t35 gnd sky130_fd_pr__nfet_01v8 ad=0p pd=0u as=0p ps=0u w=5e+06u
+ l=150000u
X170 digpotp_0.tg_3.nctrl.t1 c4.t12 gnd.t15 gnd.t14 sky130_fd_pr__nfet_01v8 ad=0p pd=0u as=0p ps=0u
+ w=1e+06u l=150000u
X171 a_26984_7366# a_27302_8882# gnd.t8 sky130_fd_pr__res_xhigh_po_0p35 l=5.42e+06u
X172 digpotp_0.n8.t0 a_28574_8882# gnd.t0 sky130_fd_pr__res_xhigh_po_0p35 l=5.42e+06u
X173 in1.t103 digpotp_0.tg_4.nctrl.t8 digpotp_0.tg_4.b.t18 vd.t78 sky130_fd_pr__pfet_01v8 ad=0p
+ pd=0u as=0p ps=0u w=5e+06u l=150000u
X174 digpotp_0.tg_7.b.t15 digpotp_0.tg_7.nctrl.t10 in1.t188 vd.t128 sky130_fd_pr__pfet_01v8 ad=0p
+ pd=0u as=0p ps=0u w=5e+06u l=150000u
X175 digpotp_0.tg_7.b.t5 c0.t8 in1.t83 gnd sky130_fd_pr__nfet_01v8 ad=0p pd=0u as=0p ps=0u w=5e+06u
+ l=150000u
X176 in1.t172 c0.t9 digpotp_0.tg_7.b.t10 gnd sky130_fd_pr__nfet_01v8 ad=0p pd=0u as=0p ps=0u
+ w=5e+06u l=150000u
X177 digpotp_0.tg_3.b.t3 digpotp_0.tg_3.nctrl.t11 in1.t52 vd.t46 sky130_fd_pr__pfet_01v8 ad=0p pd=0u
+ as=0p ps=0u w=5e+06u l=150000u
X178 in1.t3 c7.t6 digpotp_0.tg_0.b.t0 gnd sky130_fd_pr__nfet_01v8 ad=0p pd=0u as=0p ps=0u w=5e+06u
+ l=150000u
X179 in1.t67 digpotp_0.tg_2.nctrl.t11 digpotp_0.tg_2.b.t4 vd.t62 sky130_fd_pr__pfet_01v8 ad=0p pd=0u
+ as=0p ps=0u w=5e+06u l=150000u
X180 in1.t119 c7.t7 digpotp_0.tg_0.b.t20 gnd sky130_fd_pr__nfet_01v8 ad=0p pd=0u as=0p ps=0u
+ w=5e+06u l=150000u
X181 digpotp_0.tg_0.b.t18 c7.t8 in1.t66 gnd sky130_fd_pr__nfet_01v8 ad=0p pd=0u as=0p ps=0u w=5e+06u
+ l=150000u
X182 digpotp_0.tg_4.b.t0 digpotp_0.tg_4.nctrl.t9 in1.t6 vd.t8 sky130_fd_pr__pfet_01v8 ad=0p pd=0u
+ as=0p ps=0u w=5e+06u l=150000u
X183 digpotp_0.tg_0.b.t15 c7.t9 in1.t18 gnd sky130_fd_pr__nfet_01v8 ad=0p pd=0u as=0p ps=0u w=5e+06u
+ l=150000u
X184 in1.t140 c7.t10 digpotp_0.tg_0.b.t23 gnd sky130_fd_pr__nfet_01v8 ad=0p pd=0u as=0p ps=0u
+ w=5e+06u l=150000u
X185 in1.t16 c6.t5 digpotp_0.tg_1.b.t1 gnd sky130_fd_pr__nfet_01v8 ad=0p pd=0u as=0p ps=0u w=5e+06u
+ l=150000u
X186 digpotp_0.tg_6.b.t8 digpotp_0.tg_6.nctrl.t11 in1.t9 vd.t12 sky130_fd_pr__pfet_01v8 ad=0p pd=0u
+ as=0p ps=0u w=5e+06u l=150000u
X187 digpotp_0.tg_0.b.t21 c7.t11 in1.t121 gnd sky130_fd_pr__nfet_01v8 ad=0p pd=0u as=0p ps=0u
+ w=5e+06u l=150000u
X188 a_27620_3826# a_27302_5342# gnd sky130_fd_pr__res_xhigh_po_0p35 l=5.42e+06u
X189 in1.t144 digpotp_0.tg_5.nctrl.t9 digpotp_0.tg_5.b.t4 vd.t101 sky130_fd_pr__pfet_01v8 ad=0p
+ pd=0u as=0p ps=0u w=5e+06u l=150000u
X190 digpotp_0.tg_0.b.t24 c7.t12 in1.t141 gnd sky130_fd_pr__nfet_01v8 ad=0p pd=0u as=0p ps=0u
+ w=5e+06u l=150000u
X191 in1.t84 c7.t13 digpotp_0.tg_0.b.t19 gnd sky130_fd_pr__nfet_01v8 ad=0p pd=0u as=0p ps=0u
+ w=5e+06u l=150000u
X192 digpotp_0.tg_1.b.t23 c6.t6 in1.t123 gnd sky130_fd_pr__nfet_01v8 ad=0p pd=0u as=0p ps=0u
+ w=5e+06u l=150000u
X193 in1.t20 c6.t7 digpotp_0.tg_1.b.t2 gnd sky130_fd_pr__nfet_01v8 ad=0p pd=0u as=0p ps=0u w=5e+06u
+ l=150000u
X194 a_31610_5759.t0 in2.t1 w_30480_5540.t4 w_30480_5540.t3 sky130_fd_pr__pfet_01v8 ad=0p pd=0u
+ as=0p ps=0u w=3e+06u l=150000u
X195 in1.t158 digpotp_0.tg_4.nctrl.t10 digpotp_0.tg_4.b.t22 vd.t111 sky130_fd_pr__pfet_01v8 ad=0p
+ pd=0u as=0p ps=0u w=5e+06u l=150000u
X196 digpotp_0.tg_1.b.t22 c6.t8 in1.t122 gnd sky130_fd_pr__nfet_01v8 ad=0p pd=0u as=0p ps=0u
+ w=5e+06u l=150000u
X197 in1.t70 c6.t9 digpotp_0.tg_1.b.t5 gnd sky130_fd_pr__nfet_01v8 ad=0p pd=0u as=0p ps=0u w=5e+06u
+ l=150000u
X198 digpotp_0.tg_1.b.t21 c6.t10 in1.t98 gnd sky130_fd_pr__nfet_01v8 ad=0p pd=0u as=0p ps=0u
+ w=5e+06u l=150000u
X199 digpotp_0.tg_5.b.t3 digpotp_0.tg_5.nctrl.t10 in1.t22 vd.t22 sky130_fd_pr__pfet_01v8 ad=0p pd=0u
+ as=0p ps=0u w=5e+06u l=150000u
X200 in1.t73 digpotp_0.tg_1.nctrl.t8 digpotp_0.tg_1.b.t11 vd.t65 sky130_fd_pr__pfet_01v8 ad=0p pd=0u
+ as=0p ps=0u w=5e+06u l=150000u
X201 in1.t97 c6.t11 digpotp_0.tg_1.b.t20 gnd sky130_fd_pr__nfet_01v8 ad=0p pd=0u as=0p ps=0u
+ w=5e+06u l=150000u
X202 digpotp_0.tg_1.b.t19 c6.t12 in1.t95 gnd sky130_fd_pr__nfet_01v8 ad=0p pd=0u as=0p ps=0u
+ w=5e+06u l=150000u
X203 out.t0 ib.t9 vd.t26 vd.t25 sky130_fd_pr__pfet_01v8 ad=0p pd=0u as=0p ps=0u w=7.5e+06u l=1e+06u
X204 digpotp_0.tg_4.nctrl.t1 c3.t10 vd.t92 vd.t91 sky130_fd_pr__pfet_01v8 ad=0p pd=0u as=0p ps=0u
+ w=3e+06u l=150000u
X205 a_27620_7366# a_27938_8882# gnd.t7 sky130_fd_pr__res_xhigh_po_0p35 l=5.42e+06u
X206 in1.t71 digpotp_0.tg_2.nctrl.t12 digpotp_0.tg_2.b.t3 vd.t64 sky130_fd_pr__pfet_01v8 ad=0p pd=0u
+ as=0p ps=0u w=5e+06u l=150000u
X207 digpotp_0.tg_3.b.t8 digpotp_0.tg_3.nctrl.t12 in1.t51 vd.t45 sky130_fd_pr__pfet_01v8 ad=0p pd=0u
+ as=0p ps=0u w=5e+06u l=150000u
X208 digpotp_0.tg_6.nctrl.t1 c1.t12 gnd.t20 gnd.t19 sky130_fd_pr__nfet_01v8 ad=0p pd=0u as=0p ps=0u
+ w=1e+06u l=150000u
X209 in1.t101 c3.t11 digpotp_0.tg_4.b.t4 gnd sky130_fd_pr__nfet_01v8 ad=0p pd=0u as=0p ps=0u
+ w=5e+06u l=150000u
X210 in1.t131 digpotp_0.tg_2.nctrl.t13 digpotp_0.tg_2.b.t2 vd.t98 sky130_fd_pr__pfet_01v8 ad=0p
+ pd=0u as=0p ps=0u w=5e+06u l=150000u
X211 digpotp_0.tg_4.b.t3 c3.t12 in1.t17 gnd sky130_fd_pr__nfet_01v8 ad=0p pd=0u as=0p ps=0u w=5e+06u
+ l=150000u
X212 w_30480_5540.t6 digpotp_0.n8.t11 a_30618_4910.t2 w_30480_5540.t5 sky130_fd_pr__pfet_01v8 ad=0p
+ pd=0u as=0p ps=0u w=3e+06u l=150000u
X213 digpotp_0.tg_0.b.t5 digpotp_0.tg_0.nctrl.t11 in1.t152 vd.t107 sky130_fd_pr__pfet_01v8 ad=0p
+ pd=0u as=0p ps=0u w=5e+06u l=150000u
X214 digpotp_0.tg_5.b.t2 digpotp_0.tg_5.nctrl.t11 in1.t146 vd.t102 sky130_fd_pr__pfet_01v8 ad=0p
+ pd=0u as=0p ps=0u w=5e+06u l=150000u
X215 digpotp_0.tg_4.b.t1 digpotp_0.tg_4.nctrl.t11 in1.t8 vd.t11 sky130_fd_pr__pfet_01v8 ad=0p pd=0u
+ as=0p ps=0u w=5e+06u l=150000u
X216 digpotp_0.tg_6.b.t7 digpotp_0.tg_6.nctrl.t12 in1.t87 vd.t71 sky130_fd_pr__pfet_01v8 ad=0p pd=0u
+ as=0p ps=0u w=5e+06u l=150000u
X217 digpotp_0.tg_7.b.t14 digpotp_0.tg_7.nctrl.t11 in1.t105 vd.t81 sky130_fd_pr__pfet_01v8 ad=0p
+ pd=0u as=0p ps=0u w=5e+06u l=150000u
X218 in1.t79 c3.t13 digpotp_0.tg_4.b.t2 gnd sky130_fd_pr__nfet_01v8 ad=0p pd=0u as=0p ps=0u w=5e+06u
+ l=150000u
X219 gnd.t28 a_30618_4910.t0 a_30618_4910.t1 gnd.t27 sky130_fd_pr__nfet_01v8 ad=0p pd=0u as=0p ps=0u
+ w=1e+06u l=1e+06u
X220 in1.t5 digpotp_0.tg_5.nctrl.t12 digpotp_0.tg_5.b.t1 vd.t7 sky130_fd_pr__pfet_01v8 ad=0p pd=0u
+ as=0p ps=0u w=5e+06u l=150000u
X221 in1.t120 c2.t10 digpotp_0.tg_5.b.t18 gnd sky130_fd_pr__nfet_01v8 ad=0p pd=0u as=0p ps=0u
+ w=5e+06u l=150000u
X222 digpotp_0.tg_1.b.t10 digpotp_0.tg_1.nctrl.t9 in1.t89 vd.t73 sky130_fd_pr__pfet_01v8 ad=0p pd=0u
+ as=0p ps=0u w=5e+06u l=150000u
X223 in1.t161 c2.t11 digpotp_0.tg_5.b.t22 gnd sky130_fd_pr__nfet_01v8 ad=0p pd=0u as=0p ps=0u
+ w=5e+06u l=150000u
X224 a_27620_7366# a_27302_8882# gnd.t23 sky130_fd_pr__res_xhigh_po_0p35 l=5.42e+06u
X225 in1.t80 c1.t13 digpotp_0.tg_6.b.t3 gnd sky130_fd_pr__nfet_01v8 ad=0p pd=0u as=0p ps=0u w=5e+06u
+ l=150000u
X226 digpotp_0.tg_5.b.t24 c2.t12 in1.t191 gnd sky130_fd_pr__nfet_01v8 ad=0p pd=0u as=0p ps=0u
+ w=5e+06u l=150000u
X227 in1.t183 digpotp_0.tg_1.nctrl.t10 digpotp_0.tg_1.b.t9 vd.t125 sky130_fd_pr__pfet_01v8 ad=0p
+ pd=0u as=0p ps=0u w=5e+06u l=150000u
X228 in1.t42 digpotp_0.tg_4.nctrl.t12 digpotp_0.tg_4.b.t15 vd.t40 sky130_fd_pr__pfet_01v8 ad=0p
+ pd=0u as=0p ps=0u w=5e+06u l=150000u
X229 digpotp_0.tg_7.b.t13 digpotp_0.tg_7.nctrl.t12 in1.t166 vd.t118 sky130_fd_pr__pfet_01v8 ad=0p
+ pd=0u as=0p ps=0u w=5e+06u l=150000u
X230 digpotp_0.tg_5.b.t17 c2.t13 in1.t112 gnd sky130_fd_pr__nfet_01v8 ad=0p pd=0u as=0p ps=0u
+ w=5e+06u l=150000u
X231 digpotp_0.tg_3.b.t20 c4.t13 in1.t117 gnd sky130_fd_pr__nfet_01v8 ad=0p pd=0u as=0p ps=0u
+ w=5e+06u l=150000u
X232 vd.t16 ib.t10 w_30480_5540.t0 vd.t15 sky130_fd_pr__pfet_01v8 ad=0p pd=0u as=0p ps=0u w=3e+06u
+ l=1e+06u
X233 digpotp_0.tg_6.b.t23 a_24902_5342# gnd sky130_fd_pr__res_xhigh_po_0p35 l=5.42e+06u
X234 in1.t10 digpotp_0.tg_7.nctrl.t13 digpotp_0.tg_7.b.t12 vd.t17 sky130_fd_pr__pfet_01v8 ad=0p
+ pd=0u as=0p ps=0u w=5e+06u l=150000u
X235 digpotp_0.tg_7.b.t3 c0.t10 in1.t33 gnd sky130_fd_pr__nfet_01v8 ad=0p pd=0u as=0p ps=0u w=5e+06u
+ l=150000u
X236 in1.t135 c5.t10 digpotp_0.tg_2.b.t20 gnd sky130_fd_pr__nfet_01v8 ad=0p pd=0u as=0p ps=0u
+ w=5e+06u l=150000u
X237 digpotp_0.tg_0.b.t4 digpotp_0.tg_0.nctrl.t12 in1.t0 vd.t2 sky130_fd_pr__pfet_01v8 ad=0p pd=0u
+ as=0p ps=0u w=5e+06u l=150000u
X238 digpotp_0.tg_1.b.t8 digpotp_0.tg_1.nctrl.t11 in1.t85 vd.t69 sky130_fd_pr__pfet_01v8 ad=0p pd=0u
+ as=0p ps=0u w=5e+06u l=150000u
X239 digpotp_0.tg_7.b.t11 c0.t11 in1.t186 gnd sky130_fd_pr__nfet_01v8 ad=0p pd=0u as=0p ps=0u
+ w=5e+06u l=150000u