*SPEF "ieee 1481-1999"
*DESIGN "sr"
*DATE "11:11:11 Fri 11 11, 1111"
*VENDOR "OpenRCX"
*PROGRAM "Parallel Extraction"
*VERSION "1.0"
*DESIGN_FLOW "NAME_SCOPE LOCAL" "PIN_CAP NONE"
*DIVIDER /
*DELIMITER :
*BUS_DELIMITER []
*T_UNIT 1 NS
*C_UNIT 1 PF
*R_UNIT 1 OHM
*L_UNIT 1 HENRY

*NAME_MAP
*3 data[0]
*4 data[1]
*5 data[2]
*6 data[3]
*7 data[4]
*8 data[5]
*9 data[6]
*10 net11
*11 reset
*12 sclk
*13 sdi
*14 ss
*15 _00_
*16 _01_
*17 _02_
*18 _03_
*19 _04_
*20 _05_
*21 _06_
*22 _07_
*23 _08_
*24 _09_
*25 _10_
*26 _11_
*27 _12_
*28 _13_
*29 clknet_0_sclk
*30 clknet_1_0__leaf_sclk
*31 clknet_1_1__leaf_sclk
*32 net1
*33 net10
*34 net12
*35 net13
*36 net14
*37 net15
*38 net16
*39 net17
*40 net2
*41 net3
*42 net4
*43 net5
*44 net6
*45 net7
*46 net8
*47 net9
*48 FILLER_0_0_113
*49 FILLER_0_0_117
*50 FILLER_0_0_124
*51 FILLER_0_0_136
*52 FILLER_0_0_147
*53 FILLER_0_0_159
*54 FILLER_0_0_21
*55 FILLER_0_0_27
*56 FILLER_0_0_35
*57 FILLER_0_0_57
*58 FILLER_0_0_82
*59 FILLER_0_0_85
*60 FILLER_0_0_9
*61 FILLER_0_0_96
*62 FILLER_0_10_109
*63 FILLER_0_10_121
*64 FILLER_0_10_133
*65 FILLER_0_10_139
*66 FILLER_0_10_141
*67 FILLER_0_10_15
*68 FILLER_0_10_153
*69 FILLER_0_10_161
*70 FILLER_0_10_27
*71 FILLER_0_10_29
*72 FILLER_0_10_3
*73 FILLER_0_10_41
*74 FILLER_0_10_53
*75 FILLER_0_10_65
*76 FILLER_0_10_77
*77 FILLER_0_10_83
*78 FILLER_0_10_85
*79 FILLER_0_10_97
*80 FILLER_0_11_105
*81 FILLER_0_11_111
*82 FILLER_0_11_113
*83 FILLER_0_11_125
*84 FILLER_0_11_137
*85 FILLER_0_11_149
*86 FILLER_0_11_15
*87 FILLER_0_11_161
*88 FILLER_0_11_27
*89 FILLER_0_11_3
*90 FILLER_0_11_39
*91 FILLER_0_11_51
*92 FILLER_0_11_55
*93 FILLER_0_11_57
*94 FILLER_0_11_69
*95 FILLER_0_11_81
*96 FILLER_0_11_93
*97 FILLER_0_12_109
*98 FILLER_0_12_121
*99 FILLER_0_12_133
*100 FILLER_0_12_139
*101 FILLER_0_12_141
*102 FILLER_0_12_15
*103 FILLER_0_12_153
*104 FILLER_0_12_161
*105 FILLER_0_12_27
*106 FILLER_0_12_29
*107 FILLER_0_12_3
*108 FILLER_0_12_41
*109 FILLER_0_12_53
*110 FILLER_0_12_65
*111 FILLER_0_12_77
*112 FILLER_0_12_83
*113 FILLER_0_12_85
*114 FILLER_0_12_97
*115 FILLER_0_13_105
*116 FILLER_0_13_111
*117 FILLER_0_13_113
*118 FILLER_0_13_125
*119 FILLER_0_13_137
*120 FILLER_0_13_149
*121 FILLER_0_13_15
*122 FILLER_0_13_161
*123 FILLER_0_13_27
*124 FILLER_0_13_3
*125 FILLER_0_13_39
*126 FILLER_0_13_51
*127 FILLER_0_13_55
*128 FILLER_0_13_57
*129 FILLER_0_13_69
*130 FILLER_0_13_81
*131 FILLER_0_13_93
*132 FILLER_0_14_109
*133 FILLER_0_14_121
*134 FILLER_0_14_133
*135 FILLER_0_14_139
*136 FILLER_0_14_141
*137 FILLER_0_14_15
*138 FILLER_0_14_153
*139 FILLER_0_14_161
*140 FILLER_0_14_27
*141 FILLER_0_14_29
*142 FILLER_0_14_3
*143 FILLER_0_14_41
*144 FILLER_0_14_53
*145 FILLER_0_14_65
*146 FILLER_0_14_77
*147 FILLER_0_14_83
*148 FILLER_0_14_85
*149 FILLER_0_14_97
*150 FILLER_0_15_105
*151 FILLER_0_15_111
*152 FILLER_0_15_113
*153 FILLER_0_15_125
*154 FILLER_0_15_137
*155 FILLER_0_15_149
*156 FILLER_0_15_15
*157 FILLER_0_15_161
*158 FILLER_0_15_27
*159 FILLER_0_15_3
*160 FILLER_0_15_39
*161 FILLER_0_15_51
*162 FILLER_0_15_55
*163 FILLER_0_15_57
*164 FILLER_0_15_69
*165 FILLER_0_15_81
*166 FILLER_0_15_93
*167 FILLER_0_16_109
*168 FILLER_0_16_121
*169 FILLER_0_16_133
*170 FILLER_0_16_139
*171 FILLER_0_16_141
*172 FILLER_0_16_15
*173 FILLER_0_16_153
*174 FILLER_0_16_161
*175 FILLER_0_16_27
*176 FILLER_0_16_29
*177 FILLER_0_16_3
*178 FILLER_0_16_41
*179 FILLER_0_16_53
*180 FILLER_0_16_65
*181 FILLER_0_16_77
*182 FILLER_0_16_83
*183 FILLER_0_16_85
*184 FILLER_0_16_97
*185 FILLER_0_17_105
*186 FILLER_0_17_111
*187 FILLER_0_17_113
*188 FILLER_0_17_125
*189 FILLER_0_17_137
*190 FILLER_0_17_149
*191 FILLER_0_17_15
*192 FILLER_0_17_161
*193 FILLER_0_17_27
*194 FILLER_0_17_3
*195 FILLER_0_17_39
*196 FILLER_0_17_51
*197 FILLER_0_17_55
*198 FILLER_0_17_57
*199 FILLER_0_17_69
*200 FILLER_0_17_81
*201 FILLER_0_17_93
*202 FILLER_0_18_109
*203 FILLER_0_18_121
*204 FILLER_0_18_133
*205 FILLER_0_18_139
*206 FILLER_0_18_141
*207 FILLER_0_18_15
*208 FILLER_0_18_153
*209 FILLER_0_18_161
*210 FILLER_0_18_27
*211 FILLER_0_18_29
*212 FILLER_0_18_3
*213 FILLER_0_18_41
*214 FILLER_0_18_53
*215 FILLER_0_18_65
*216 FILLER_0_18_77
*217 FILLER_0_18_83
*218 FILLER_0_18_85
*219 FILLER_0_18_97
*220 FILLER_0_19_105
*221 FILLER_0_19_111
*222 FILLER_0_19_113
*223 FILLER_0_19_125
*224 FILLER_0_19_137
*225 FILLER_0_19_149
*226 FILLER_0_19_15
*227 FILLER_0_19_161
*228 FILLER_0_19_27
*229 FILLER_0_19_3
*230 FILLER_0_19_39
*231 FILLER_0_19_51
*232 FILLER_0_19_55
*233 FILLER_0_19_57
*234 FILLER_0_19_69
*235 FILLER_0_19_81
*236 FILLER_0_19_93
*237 FILLER_0_1_107
*238 FILLER_0_1_111
*239 FILLER_0_1_121
*240 FILLER_0_1_133
*241 FILLER_0_1_145
*242 FILLER_0_1_15
*243 FILLER_0_1_157
*244 FILLER_0_1_27
*245 FILLER_0_1_3
*246 FILLER_0_1_57
*247 FILLER_0_20_109
*248 FILLER_0_20_121
*249 FILLER_0_20_133
*250 FILLER_0_20_139
*251 FILLER_0_20_141
*252 FILLER_0_20_15
*253 FILLER_0_20_153
*254 FILLER_0_20_161
*255 FILLER_0_20_27
*256 FILLER_0_20_29
*257 FILLER_0_20_3
*258 FILLER_0_20_41
*259 FILLER_0_20_53
*260 FILLER_0_20_65
*261 FILLER_0_20_77
*262 FILLER_0_20_83
*263 FILLER_0_20_85
*264 FILLER_0_20_97
*265 FILLER_0_21_105
*266 FILLER_0_21_111
*267 FILLER_0_21_113
*268 FILLER_0_21_125
*269 FILLER_0_21_137
*270 FILLER_0_21_149
*271 FILLER_0_21_15
*272 FILLER_0_21_161
*273 FILLER_0_21_27
*274 FILLER_0_21_3
*275 FILLER_0_21_39
*276 FILLER_0_21_51
*277 FILLER_0_21_55
*278 FILLER_0_21_57
*279 FILLER_0_21_69
*280 FILLER_0_21_81
*281 FILLER_0_21_93
*282 FILLER_0_22_109
*283 FILLER_0_22_121
*284 FILLER_0_22_133
*285 FILLER_0_22_139
*286 FILLER_0_22_141
*287 FILLER_0_22_15
*288 FILLER_0_22_153
*289 FILLER_0_22_161
*290 FILLER_0_22_27
*291 FILLER_0_22_29
*292 FILLER_0_22_3
*293 FILLER_0_22_41
*294 FILLER_0_22_53
*295 FILLER_0_22_65
*296 FILLER_0_22_77
*297 FILLER_0_22_83
*298 FILLER_0_22_85
*299 FILLER_0_22_97
*300 FILLER_0_23_105
*301 FILLER_0_23_111
*302 FILLER_0_23_113
*303 FILLER_0_23_125
*304 FILLER_0_23_137
*305 FILLER_0_23_149
*306 FILLER_0_23_15
*307 FILLER_0_23_161
*308 FILLER_0_23_27
*309 FILLER_0_23_3
*310 FILLER_0_23_39
*311 FILLER_0_23_51
*312 FILLER_0_23_55
*313 FILLER_0_23_57
*314 FILLER_0_23_69
*315 FILLER_0_23_81
*316 FILLER_0_23_93
*317 FILLER_0_24_109
*318 FILLER_0_24_121
*319 FILLER_0_24_133
*320 FILLER_0_24_139
*321 FILLER_0_24_141
*322 FILLER_0_24_15
*323 FILLER_0_24_153
*324 FILLER_0_24_161
*325 FILLER_0_24_27
*326 FILLER_0_24_29
*327 FILLER_0_24_3
*328 FILLER_0_24_41
*329 FILLER_0_24_53
*330 FILLER_0_24_65
*331 FILLER_0_24_77
*332 FILLER_0_24_83
*333 FILLER_0_24_85
*334 FILLER_0_24_97
*335 FILLER_0_25_105
*336 FILLER_0_25_111
*337 FILLER_0_25_113
*338 FILLER_0_25_125
*339 FILLER_0_25_137
*340 FILLER_0_25_149
*341 FILLER_0_25_15
*342 FILLER_0_25_161
*343 FILLER_0_25_27
*344 FILLER_0_25_3
*345 FILLER_0_25_39
*346 FILLER_0_25_51
*347 FILLER_0_25_55
*348 FILLER_0_25_57
*349 FILLER_0_25_69
*350 FILLER_0_25_81
*351 FILLER_0_25_93
*352 FILLER_0_26_109
*353 FILLER_0_26_121
*354 FILLER_0_26_133
*355 FILLER_0_26_139
*356 FILLER_0_26_141
*357 FILLER_0_26_15
*358 FILLER_0_26_153
*359 FILLER_0_26_161
*360 FILLER_0_26_27
*361 FILLER_0_26_29
*362 FILLER_0_26_3
*363 FILLER_0_26_41
*364 FILLER_0_26_53
*365 FILLER_0_26_65
*366 FILLER_0_26_77
*367 FILLER_0_26_83
*368 FILLER_0_26_85
*369 FILLER_0_26_97
*370 FILLER_0_27_105
*371 FILLER_0_27_11
*372 FILLER_0_27_110
*373 FILLER_0_27_113
*374 FILLER_0_27_125
*375 FILLER_0_27_137
*376 FILLER_0_27_141
*377 FILLER_0_27_153
*378 FILLER_0_27_160
*379 FILLER_0_27_19
*380 FILLER_0_27_27
*381 FILLER_0_27_29
*382 FILLER_0_27_3
*383 FILLER_0_27_41
*384 FILLER_0_27_53
*385 FILLER_0_27_57
*386 FILLER_0_27_69
*387 FILLER_0_27_81
*388 FILLER_0_27_85
*389 FILLER_0_27_97
*390 FILLER_0_2_115
*391 FILLER_0_2_127
*392 FILLER_0_2_139
*393 FILLER_0_2_141
*394 FILLER_0_2_15
*395 FILLER_0_2_153
*396 FILLER_0_2_161
*397 FILLER_0_2_27
*398 FILLER_0_2_29
*399 FILLER_0_2_3
*400 FILLER_0_2_80
*401 FILLER_0_2_85
*402 FILLER_0_2_91
*403 FILLER_0_3_110
*404 FILLER_0_3_113
*405 FILLER_0_3_125
*406 FILLER_0_3_137
*407 FILLER_0_3_149
*408 FILLER_0_3_15
*409 FILLER_0_3_161
*410 FILLER_0_3_27
*411 FILLER_0_3_3
*412 FILLER_0_3_39
*413 FILLER_0_3_55
*414 FILLER_0_3_65
*415 FILLER_0_4_104
*416 FILLER_0_4_116
*417 FILLER_0_4_128
*418 FILLER_0_4_141
*419 FILLER_0_4_15
*420 FILLER_0_4_153
*421 FILLER_0_4_161
*422 FILLER_0_4_27
*423 FILLER_0_4_29
*424 FILLER_0_4_3
*425 FILLER_0_4_41
*426 FILLER_0_4_65
*427 FILLER_0_4_82
*428 FILLER_0_4_85
*429 FILLER_0_4_93
*430 FILLER_0_5_105
*431 FILLER_0_5_111
*432 FILLER_0_5_113
*433 FILLER_0_5_125
*434 FILLER_0_5_137
*435 FILLER_0_5_149
*436 FILLER_0_5_15
*437 FILLER_0_5_161
*438 FILLER_0_5_27
*439 FILLER_0_5_3
*440 FILLER_0_5_39
*441 FILLER_0_5_53
*442 FILLER_0_5_57
*443 FILLER_0_5_69
*444 FILLER_0_5_81
*445 FILLER_0_5_93
*446 FILLER_0_6_109
*447 FILLER_0_6_121
*448 FILLER_0_6_133
*449 FILLER_0_6_139
*450 FILLER_0_6_141
*451 FILLER_0_6_15
*452 FILLER_0_6_153
*453 FILLER_0_6_161
*454 FILLER_0_6_27
*455 FILLER_0_6_29
*456 FILLER_0_6_3
*457 FILLER_0_6_41
*458 FILLER_0_6_53
*459 FILLER_0_6_65
*460 FILLER_0_6_77
*461 FILLER_0_6_83
*462 FILLER_0_6_85
*463 FILLER_0_6_97
*464 FILLER_0_7_105
*465 FILLER_0_7_111
*466 FILLER_0_7_113
*467 FILLER_0_7_125
*468 FILLER_0_7_137
*469 FILLER_0_7_149
*470 FILLER_0_7_15
*471 FILLER_0_7_161
*472 FILLER_0_7_27
*473 FILLER_0_7_3
*474 FILLER_0_7_39
*475 FILLER_0_7_51
*476 FILLER_0_7_55
*477 FILLER_0_7_57
*478 FILLER_0_7_69
*479 FILLER_0_7_81
*480 FILLER_0_7_93
*481 FILLER_0_8_109
*482 FILLER_0_8_121
*483 FILLER_0_8_133
*484 FILLER_0_8_139
*485 FILLER_0_8_141
*486 FILLER_0_8_15
*487 FILLER_0_8_153
*488 FILLER_0_8_161
*489 FILLER_0_8_27
*490 FILLER_0_8_29
*491 FILLER_0_8_3
*492 FILLER_0_8_41
*493 FILLER_0_8_53
*494 FILLER_0_8_65
*495 FILLER_0_8_77
*496 FILLER_0_8_83
*497 FILLER_0_8_85
*498 FILLER_0_8_97
*499 FILLER_0_9_105
*500 FILLER_0_9_111
*501 FILLER_0_9_113
*502 FILLER_0_9_125
*503 FILLER_0_9_137
*504 FILLER_0_9_149
*505 FILLER_0_9_15
*506 FILLER_0_9_161
*507 FILLER_0_9_27
*508 FILLER_0_9_3
*509 FILLER_0_9_39
*510 FILLER_0_9_51
*511 FILLER_0_9_55
*512 FILLER_0_9_57
*513 FILLER_0_9_69
*514 FILLER_0_9_81
*515 FILLER_0_9_93
*516 PHY_EDGE_ROW_0_Left_28
*517 PHY_EDGE_ROW_0_Right_0
*518 PHY_EDGE_ROW_10_Left_38
*519 PHY_EDGE_ROW_10_Right_10
*520 PHY_EDGE_ROW_11_Left_39
*521 PHY_EDGE_ROW_11_Right_11
*522 PHY_EDGE_ROW_12_Left_40
*523 PHY_EDGE_ROW_12_Right_12
*524 PHY_EDGE_ROW_13_Left_41
*525 PHY_EDGE_ROW_13_Right_13
*526 PHY_EDGE_ROW_14_Left_42
*527 PHY_EDGE_ROW_14_Right_14
*528 PHY_EDGE_ROW_15_Left_43
*529 PHY_EDGE_ROW_15_Right_15
*530 PHY_EDGE_ROW_16_Left_44
*531 PHY_EDGE_ROW_16_Right_16
*532 PHY_EDGE_ROW_17_Left_45
*533 PHY_EDGE_ROW_17_Right_17
*534 PHY_EDGE_ROW_18_Left_46
*535 PHY_EDGE_ROW_18_Right_18
*536 PHY_EDGE_ROW_19_Left_47
*537 PHY_EDGE_ROW_19_Right_19
*538 PHY_EDGE_ROW_1_Left_29
*539 PHY_EDGE_ROW_1_Right_1
*540 PHY_EDGE_ROW_20_Left_48
*541 PHY_EDGE_ROW_20_Right_20
*542 PHY_EDGE_ROW_21_Left_49
*543 PHY_EDGE_ROW_21_Right_21
*544 PHY_EDGE_ROW_22_Left_50
*545 PHY_EDGE_ROW_22_Right_22
*546 PHY_EDGE_ROW_23_Left_51
*547 PHY_EDGE_ROW_23_Right_23
*548 PHY_EDGE_ROW_24_Left_52
*549 PHY_EDGE_ROW_24_Right_24
*550 PHY_EDGE_ROW_25_Left_53
*551 PHY_EDGE_ROW_25_Right_25
*552 PHY_EDGE_ROW_26_Left_54
*553 PHY_EDGE_ROW_26_Right_26
*554 PHY_EDGE_ROW_27_Left_55
*555 PHY_EDGE_ROW_27_Right_27
*556 PHY_EDGE_ROW_2_Left_30
*557 PHY_EDGE_ROW_2_Right_2
*558 PHY_EDGE_ROW_3_Left_31
*559 PHY_EDGE_ROW_3_Right_3
*560 PHY_EDGE_ROW_4_Left_32
*561 PHY_EDGE_ROW_4_Right_4
*562 PHY_EDGE_ROW_5_Left_33
*563 PHY_EDGE_ROW_5_Right_5
*564 PHY_EDGE_ROW_6_Left_34
*565 PHY_EDGE_ROW_6_Right_6
*566 PHY_EDGE_ROW_7_Left_35
*567 PHY_EDGE_ROW_7_Right_7
*568 PHY_EDGE_ROW_8_Left_36
*569 PHY_EDGE_ROW_8_Right_8
*570 PHY_EDGE_ROW_9_Left_37
*571 PHY_EDGE_ROW_9_Right_9
*572 TAP_TAPCELL_ROW_0_56
*573 TAP_TAPCELL_ROW_0_57
*574 TAP_TAPCELL_ROW_0_58
*575 TAP_TAPCELL_ROW_0_59
*576 TAP_TAPCELL_ROW_0_60
*577 TAP_TAPCELL_ROW_10_83
*578 TAP_TAPCELL_ROW_10_84
*579 TAP_TAPCELL_ROW_10_85
*580 TAP_TAPCELL_ROW_11_86
*581 TAP_TAPCELL_ROW_11_87
*582 TAP_TAPCELL_ROW_12_88
*583 TAP_TAPCELL_ROW_12_89
*584 TAP_TAPCELL_ROW_12_90
*585 TAP_TAPCELL_ROW_13_91
*586 TAP_TAPCELL_ROW_13_92
*587 TAP_TAPCELL_ROW_14_93
*588 TAP_TAPCELL_ROW_14_94
*589 TAP_TAPCELL_ROW_14_95
*590 TAP_TAPCELL_ROW_15_96
*591 TAP_TAPCELL_ROW_15_97
*592 TAP_TAPCELL_ROW_16_100
*593 TAP_TAPCELL_ROW_16_98
*594 TAP_TAPCELL_ROW_16_99
*595 TAP_TAPCELL_ROW_17_101
*596 TAP_TAPCELL_ROW_17_102
*597 TAP_TAPCELL_ROW_18_103
*598 TAP_TAPCELL_ROW_18_104
*599 TAP_TAPCELL_ROW_18_105
*600 TAP_TAPCELL_ROW_19_106
*601 TAP_TAPCELL_ROW_19_107
*602 TAP_TAPCELL_ROW_1_61
*603 TAP_TAPCELL_ROW_1_62
*604 TAP_TAPCELL_ROW_20_108
*605 TAP_TAPCELL_ROW_20_109
*606 TAP_TAPCELL_ROW_20_110
*607 TAP_TAPCELL_ROW_21_111
*608 TAP_TAPCELL_ROW_21_112
*609 TAP_TAPCELL_ROW_22_113
*610 TAP_TAPCELL_ROW_22_114
*611 TAP_TAPCELL_ROW_22_115
*612 TAP_TAPCELL_ROW_23_116
*613 TAP_TAPCELL_ROW_23_117
*614 TAP_TAPCELL_ROW_24_118
*615 TAP_TAPCELL_ROW_24_119
*616 TAP_TAPCELL_ROW_24_120
*617 TAP_TAPCELL_ROW_25_121
*618 TAP_TAPCELL_ROW_25_122
*619 TAP_TAPCELL_ROW_26_123
*620 TAP_TAPCELL_ROW_26_124
*621 TAP_TAPCELL_ROW_26_125
*622 TAP_TAPCELL_ROW_27_126
*623 TAP_TAPCELL_ROW_27_127
*624 TAP_TAPCELL_ROW_27_128
*625 TAP_TAPCELL_ROW_27_129
*626 TAP_TAPCELL_ROW_27_130
*627 TAP_TAPCELL_ROW_2_63
*628 TAP_TAPCELL_ROW_2_64
*629 TAP_TAPCELL_ROW_2_65
*630 TAP_TAPCELL_ROW_3_66
*631 TAP_TAPCELL_ROW_3_67
*632 TAP_TAPCELL_ROW_4_68
*633 TAP_TAPCELL_ROW_4_69
*634 TAP_TAPCELL_ROW_4_70
*635 TAP_TAPCELL_ROW_5_71
*636 TAP_TAPCELL_ROW_5_72
*637 TAP_TAPCELL_ROW_6_73
*638 TAP_TAPCELL_ROW_6_74
*639 TAP_TAPCELL_ROW_6_75
*640 TAP_TAPCELL_ROW_7_76
*641 TAP_TAPCELL_ROW_7_77
*642 TAP_TAPCELL_ROW_8_78
*643 TAP_TAPCELL_ROW_8_79
*644 TAP_TAPCELL_ROW_8_80
*645 TAP_TAPCELL_ROW_9_81
*646 TAP_TAPCELL_ROW_9_82
*647 _14_
*648 _15_
*649 _16_
*650 _17_
*651 _18_
*652 _19_
*653 _20_
*654 _21_
*655 _22_
*656 _23_
*657 _24_
*658 _25_
*659 _26_
*660 _27_
*661 _28_
*662 _29_
*663 _30_
*664 _31_
*665 _32_
*666 _33_
*667 _34_
*668 clkbuf_0_sclk
*669 clkbuf_1_0__f_sclk
*670 clkbuf_1_1__f_sclk
*671 hold1
*672 hold2
*673 hold3
*674 hold4
*675 hold5
*676 hold6
*677 input1
*678 input2
*679 input3
*680 output10
*681 output4
*682 output5
*683 output6
*684 output7
*685 output8
*686 output9
*687 sr_11

*PORTS
data[0] O
data[1] O
data[2] O
data[3] O
data[4] O
data[5] O
data[6] O
data[7] O
reset I
sclk I
sdi I
ss I

*D_NET *3 0.000819118
*CONN
*P data[0] O
*I *681:X O *D sky130_fd_sc_hd__clkbuf_4
*CAP
1 data[0] 0.000409559
2 *681:X 0.000409559
*RES
1 *681:X data[0] 21.5321 
*END

*D_NET *4 0.00110071
*CONN
*P data[1] O
*I *682:X O *D sky130_fd_sc_hd__clkbuf_4
*CAP
1 data[1] 0.000467656
2 *682:X 0.000467656
3 data[1] *681:A 0.000141734
4 data[1] *42:8 2.36643e-05
*RES
1 *682:X data[1] 22.7643 
*END

*D_NET *5 0.00285312
*CONN
*P data[2] O
*I *683:X O *D sky130_fd_sc_hd__clkbuf_4
*CAP
1 data[2] 0.00117367
2 *683:X 0.00117367
3 data[2] *654:A 0.000166512
4 data[2] *661:D 7.32272e-05
5 data[2] *661:RESET_B 8.50152e-05
6 data[2] *683:A 0.000124722
7 data[2] *684:A 5.62995e-05
*RES
1 *683:X data[2] 34.2464 
*END

*D_NET *6 0.000886731
*CONN
*P data[3] O
*I *684:X O *D sky130_fd_sc_hd__clkbuf_4
*CAP
1 data[3] 0.000443366
2 *684:X 0.000443366
*RES
1 *684:X data[3] 22.0143 
*END

*D_NET *7 0.00239612
*CONN
*P data[4] O
*I *685:X O *D sky130_fd_sc_hd__clkbuf_4
*CAP
1 data[4] 0.000977309
2 *685:X 0.000977309
3 data[4] *666:D 0.000243669
4 data[4] *33:16 7.6997e-05
5 data[4] *41:73 6.75007e-05
6 data[4] *47:6 5.33334e-05
*RES
1 *685:X data[4] 39.0321 
*END

*D_NET *8 0.00103762
*CONN
*P data[5] O
*I *686:X O *D sky130_fd_sc_hd__clkbuf_4
*CAP
1 data[5] 0.000447383
2 *686:X 0.000447383
3 data[5] *680:A 0.000142856
*RES
1 *686:X data[5] 22.05 
*END

*D_NET *9 0.00101134
*CONN
*P data[6] O
*I *680:X O *D sky130_fd_sc_hd__clkbuf_4
*CAP
1 data[6] 0.000456285
2 *680:X 0.000456285
3 data[6] *680:A 9.87672e-05
*RES
1 *680:X data[6] 22.05 
*END

*D_NET *10 0.000813597
*CONN
*P data[7] O
*I *687:LO O *D sky130_fd_sc_hd__conb_1
*CAP
1 data[7] 0.000406799
2 *687:LO 0.000406799
*RES
1 *687:LO data[7] 21.9607 
*END

*D_NET *11 0.000884923
*CONN
*P reset I
*I *677:A I *D sky130_fd_sc_hd__clkbuf_4
*CAP
1 reset 0.000442461
2 *677:A 0.000442461
*RES
1 reset *677:A 22.55 
*END

*D_NET *12 0.00790134
*CONN
*P sclk I
*I *668:A I *D sky130_fd_sc_hd__clkbuf_16
*CAP
1 sclk 0.00110549
2 *668:A 4.48411e-05
3 *12:13 0.00280331
4 *12:11 0.00386396
5 *12:13 *652:A 8.37386e-05
*RES
1 sclk *12:11 28.3036 
2 *12:11 *12:13 50.0625 
3 *12:13 *668:A 14.6125 
*END

*D_NET *13 0.00102745
*CONN
*P sdi I
*I *678:A I *D sky130_fd_sc_hd__buf_1
*CAP
1 sdi 0.000513726
2 *678:A 0.000513726
*RES
1 sdi *678:A 23.7643 
*END

*D_NET *14 0.000923161
*CONN
*P ss I
*I *679:A I *D sky130_fd_sc_hd__clkbuf_4
*CAP
1 ss 0.000461581
2 *679:A 0.000461581
*RES
1 ss *679:A 22.55 
*END

*D_NET *15 0.00241991
*CONN
*I *663:D I *D sky130_fd_sc_hd__dfrtp_1
*I *652:X O *D sky130_fd_sc_hd__clkbuf_1
*CAP
1 *663:D 0.000866991
2 *652:X 0.000866991
3 *663:D *651:S 0.000209519
4 *663:D *661:CLK 0.000174497
5 *663:D *663:CLK 8.07313e-05
6 *663:D *663:RESET_B 8.45315e-05
7 *663:D *32:61 4.85631e-05
8 *663:D *43:10 5.91787e-05
9 *663:D *44:8 2.89114e-05
*RES
1 *652:X *663:D 45.4393 
*END

*D_NET *16 0.001065
*CONN
*I *664:D I *D sky130_fd_sc_hd__dfrtp_1
*I *654:X O *D sky130_fd_sc_hd__clkbuf_1
*CAP
1 *664:D 0.000301476
2 *654:X 0.000301476
3 *664:D *672:A 0.000216147
4 *664:D *683:A 3.08664e-05
5 *664:D *32:51 0.000136676
6 *664:D *44:12 7.83587e-05
*RES
1 *654:X *664:D 33.2607 
*END

*D_NET *17 0.000240232
*CONN
*I *665:D I *D sky130_fd_sc_hd__dfrtp_1
*I *656:X O *D sky130_fd_sc_hd__clkbuf_1
*CAP
1 *665:D 7.8166e-05
2 *656:X 7.8166e-05
3 *665:D *656:A 8.39e-05
4 *665:D *31:18 0
5 *665:D *41:73 0
*RES
1 *656:X *665:D 29.5464 
*END

*D_NET *18 0.0016562
*CONN
*I *666:D I *D sky130_fd_sc_hd__dfrtp_1
*I *658:X O *D sky130_fd_sc_hd__clkbuf_1
*CAP
1 *666:D 0.000683774
2 *658:X 0.000683774
3 *666:D *666:RESET_B 2.79092e-05
4 *666:D *31:8 9.63482e-06
5 *666:D *31:18 7.43578e-06
6 data[4] *666:D 0.000243669
*RES
1 *658:X *666:D 38.9571 
*END

*D_NET *19 0.00039613
*CONN
*I *667:D I *D sky130_fd_sc_hd__dfrtp_1
*I *660:X O *D sky130_fd_sc_hd__clkbuf_1
*CAP
1 *667:D 0.000159856
2 *660:X 0.000159856
3 *667:D *660:A 7.64185e-05
*RES
1 *660:X *667:D 21.6536 
*END

*D_NET *20 0.00169317
*CONN
*I *661:D I *D sky130_fd_sc_hd__dfrtp_1
*I *648:X O *D sky130_fd_sc_hd__clkbuf_1
*CAP
1 *661:D 0.00055943
2 *648:X 0.00055943
3 *661:D *661:RESET_B 0.00012427
4 *661:D *662:RESET_B 8.46285e-05
5 *661:D *663:CLK 0
6 *661:D *41:22 0.000123932
7 *661:D *41:29 2.12647e-05
8 *661:D *43:16 0.000146991
9 data[2] *661:D 7.32272e-05
*RES
1 *648:X *661:D 38.4571 
*END

*D_NET *21 0.000209659
*CONN
*I *662:D I *D sky130_fd_sc_hd__dfrtp_1
*I *650:X O *D sky130_fd_sc_hd__clkbuf_1
*CAP
1 *662:D 5.3111e-05
2 *650:X 5.3111e-05
3 *662:D *650:A 0.000103437
*RES
1 *650:X *662:D 28.9393 
*END

*D_NET *22 0.000351918
*CONN
*I *648:A I *D sky130_fd_sc_hd__clkbuf_1
*I *647:X O *D sky130_fd_sc_hd__mux2_1
*CAP
1 *648:A 0.00012796
2 *647:X 0.00012796
3 *648:A *662:CLK 7.0586e-05
4 *648:A *663:CLK 4.27842e-06
5 *648:A *43:16 2.11336e-05
*RES
1 *647:X *648:A 30.0821 
*END

*D_NET *23 0.0006645
*CONN
*I *673:A I *D sky130_fd_sc_hd__dlygate4sd3_1
*I *649:X O *D sky130_fd_sc_hd__mux2_1
*CAP
1 *673:A 0.000279709
2 *649:X 0.000279709
3 *673:A *649:A0 5.4959e-05
4 *673:A *662:RESET_B 5.01234e-05
*RES
1 *649:X *673:A 32.6179 
*END

*D_NET *24 0.00150658
*CONN
*I *652:A I *D sky130_fd_sc_hd__clkbuf_1
*I *651:X O *D sky130_fd_sc_hd__mux2_1
*CAP
1 *652:A 0.000342186
2 *651:X 0.000342186
3 *652:A *651:A0 9.41642e-05
4 *652:A *651:A1 0
5 *652:A *651:S 0
6 *652:A *672:A 0.000404881
7 *652:A *32:51 3.42301e-05
8 *652:A *41:58 0.000149966
9 *652:A *44:8 5.52238e-05
10 *12:13 *652:A 8.37386e-05
*RES
1 *651:X *652:A 36.2607 
*END

*D_NET *25 0.00151252
*CONN
*I *654:A I *D sky130_fd_sc_hd__clkbuf_1
*I *653:X O *D sky130_fd_sc_hd__mux2_1
*CAP
1 *654:A 0.00057334
2 *653:X 0.00057334
3 *654:A *683:A 0.000185541
4 *654:A *684:A 1.37861e-05
5 *654:A *44:12 0
6 *654:A *45:10 0
7 data[2] *654:A 0.000166512
*RES
1 *653:X *654:A 38.6 
*END

*D_NET *26 0.00100205
*CONN
*I *656:A I *D sky130_fd_sc_hd__clkbuf_1
*I *655:X O *D sky130_fd_sc_hd__mux2_1
*CAP
1 *656:A 0.000356135
2 *655:X 0.000356135
3 *656:A *674:A 0.000133828
4 *656:A *31:18 0
5 *656:A *46:14 7.20484e-05
6 *665:D *656:A 8.39e-05
*RES
1 *655:X *656:A 34.2607 
*END

*D_NET *27 0.00132158
*CONN
*I *658:A I *D sky130_fd_sc_hd__clkbuf_1
*I *657:X O *D sky130_fd_sc_hd__mux2_1
*CAP
1 *658:A 0.00043457
2 *657:X 0.00043457
3 *658:A *680:A 1.69175e-05
4 *658:A *686:A 0
5 *658:A *33:16 0
6 *658:A *38:12 0.00043552
*RES
1 *657:X *658:A 35.9214 
*END

*D_NET *28 0.000689847
*CONN
*I *660:A I *D sky130_fd_sc_hd__clkbuf_1
*I *659:X O *D sky130_fd_sc_hd__mux2_1
*CAP
1 *660:A 0.000294293
2 *659:X 0.000294293
3 *660:A *41:73 2.48421e-05
4 *667:D *660:A 7.64185e-05
*RES
1 *659:X *660:A 33.0286 
*END

*D_NET *29 0.00299316
*CONN
*I *670:A I *D sky130_fd_sc_hd__clkbuf_16
*I *669:A I *D sky130_fd_sc_hd__clkbuf_16
*I *668:X O *D sky130_fd_sc_hd__clkbuf_16
*CAP
1 *670:A 0.000304633
2 *669:A 0.000882769
3 *668:X 0
4 *29:4 0.0011874
5 *669:A *651:S 0.000150043
6 *669:A *672:A 2.59355e-05
7 *669:A *41:58 9.66392e-05
8 *670:A *674:A 3.54498e-05
9 *670:A *31:8 4.97967e-05
10 *670:A *32:35 0.000260493
*RES
1 *668:X *29:4 9.3 
2 *29:4 *669:A 29.4071 
3 *29:4 *670:A 25.1393 
*END

*D_NET *30 0.00334171
*CONN
*I *664:CLK I *D sky130_fd_sc_hd__dfrtp_1
*I *661:CLK I *D sky130_fd_sc_hd__dfrtp_1
*I *662:CLK I *D sky130_fd_sc_hd__dfrtp_1
*I *663:CLK I *D sky130_fd_sc_hd__dfrtp_1
*I *669:X O *D sky130_fd_sc_hd__clkbuf_16
*CAP
1 *664:CLK 0.000150372
2 *661:CLK 0.000271712
3 *662:CLK 0.000198608
4 *663:CLK 0.000364959
5 *669:X 0
6 *30:36 0.000724744
7 *30:8 0.000606081
8 *30:4 0.000345175
9 *661:CLK *651:A1 0
10 *661:CLK *661:RESET_B 0
11 *661:CLK *662:RESET_B 0
12 *661:CLK *44:12 0
13 *662:CLK *650:A 6.66813e-05
14 *663:CLK *682:A 0
15 *30:8 *43:16 1.35553e-05
16 *30:36 *43:16 0.000269734
17 *648:A *662:CLK 7.0586e-05
18 *648:A *663:CLK 4.27842e-06
19 *661:D *663:CLK 0
20 *663:D *661:CLK 0.000174497
21 *663:D *663:CLK 8.07313e-05
*RES
1 *669:X *30:4 9.3 
2 *30:4 *30:8 5.03571 
3 *30:8 *663:CLK 19.8 
4 *30:8 *662:CLK 17.8714 
5 *30:4 *30:36 5.78571 
6 *30:36 *661:CLK 23.2821 
7 *30:36 *664:CLK 11.4786 
*END

*D_NET *31 0.0021176
*CONN
*I *667:CLK I *D sky130_fd_sc_hd__dfrtp_1
*I *666:CLK I *D sky130_fd_sc_hd__dfrtp_1
*I *665:CLK I *D sky130_fd_sc_hd__dfrtp_1
*I *670:X O *D sky130_fd_sc_hd__clkbuf_16
*CAP
1 *667:CLK 9.08812e-05
2 *666:CLK 0
3 *665:CLK 2.8673e-05
4 *670:X 0.000529927
5 *31:18 0.000272744
6 *31:8 0.000864879
7 *667:CLK *41:73 6.14605e-05
8 *31:8 *32:35 0.000101508
9 *31:18 *41:73 0.000100663
10 *656:A *31:18 0
11 *665:D *31:18 0
12 *666:D *31:8 9.63482e-06
13 *666:D *31:18 7.43578e-06
14 *670:A *31:8 4.97967e-05
*RES
1 *670:X *31:8 20.4964 
2 *31:8 *31:18 9.26786 
3 *31:18 *665:CLK 9.83571 
4 *31:18 *666:CLK 9.3 
5 *31:8 *667:CLK 15.4429 
*END

*D_NET *32 0.0163106
*CONN
*I *665:RESET_B I *D sky130_fd_sc_hd__dfrtp_1
*I *662:RESET_B I *D sky130_fd_sc_hd__dfrtp_1
*I *661:RESET_B I *D sky130_fd_sc_hd__dfrtp_1
*I *663:RESET_B I *D sky130_fd_sc_hd__dfrtp_1
*I *664:RESET_B I *D sky130_fd_sc_hd__dfrtp_1
*I *666:RESET_B I *D sky130_fd_sc_hd__dfrtp_1
*I *667:RESET_B I *D sky130_fd_sc_hd__dfrtp_1
*I *677:X O *D sky130_fd_sc_hd__clkbuf_4
*CAP
1 *665:RESET_B 0.000260996
2 *662:RESET_B 0.000286573
3 *661:RESET_B 0.000283231
4 *663:RESET_B 0.000407346
5 *664:RESET_B 1.63654e-05
6 *666:RESET_B 0.000125605
7 *667:RESET_B 0.00166833
8 *677:X 0
9 *32:61 0.00059123
10 *32:51 0.00126668
11 *32:35 0.00120447
12 *32:22 0.00102209
13 *32:8 0.00441394
14 *32:6 0.00307377
15 *662:RESET_B *43:10 7.74068e-05
16 *662:RESET_B *43:16 0.000268629
17 *663:RESET_B *651:A0 4.85049e-06
18 *663:RESET_B *651:A1 9.83442e-05
19 *663:RESET_B *651:S 1.55885e-05
20 *663:RESET_B *44:8 1.14573e-05
21 *664:RESET_B *45:8 2.51343e-06
22 *665:RESET_B *651:A0 0.00013801
23 *666:RESET_B *33:16 0
24 *666:RESET_B *41:73 0
25 *667:RESET_B *33:8 1.28239e-05
26 *32:35 *45:8 2.24405e-05
27 *32:51 *651:S 0
28 data[2] *661:RESET_B 8.50152e-05
29 *652:A *32:51 3.42301e-05
30 *661:CLK *661:RESET_B 0
31 *661:CLK *662:RESET_B 0
32 *661:D *661:RESET_B 0.00012427
33 *661:D *662:RESET_B 8.46285e-05
34 *663:D *663:RESET_B 8.45315e-05
35 *663:D *32:61 4.85631e-05
36 *664:D *32:51 0.000136676
37 *666:D *666:RESET_B 2.79092e-05
38 *670:A *32:35 0.000260493
39 *673:A *662:RESET_B 5.01234e-05
40 *31:8 *32:35 0.000101508
*RES
1 *677:X *32:6 13.8 
2 *32:6 *32:8 57.1964 
3 *32:8 *667:RESET_B 25.0982 
4 *667:RESET_B *32:22 9.90179 
5 *32:22 *666:RESET_B 6.44643 
6 *32:22 *32:35 14.9107 
7 *32:35 *664:RESET_B 0.473214 
8 *32:35 *32:51 16.75 
9 *32:51 *663:RESET_B 5.3125 
10 *663:RESET_B *32:61 4.97321 
11 *32:61 *661:RESET_B 9.8125 
12 *32:61 *662:RESET_B 11.3036 
13 *32:51 *665:RESET_B 3.90179 
*END

*D_NET *33 0.00483282
*CONN
*I *659:A1 I *D sky130_fd_sc_hd__mux2_1
*I *680:A I *D sky130_fd_sc_hd__clkbuf_4
*I *657:A0 I *D sky130_fd_sc_hd__mux2_1
*I *667:Q O *D sky130_fd_sc_hd__dfrtp_1
*CAP
1 *659:A1 0.00045713
2 *680:A 0.000802384
3 *657:A0 7.03659e-05
4 *667:Q 4.50235e-05
5 *33:16 0.00131979
6 *33:8 0.000949191
7 *657:A0 *685:A 0.00027452
8 *657:A0 *38:12 0.000359801
9 *659:A1 *659:S 2.11336e-05
10 *680:A *38:12 0.000185124
11 data[4] *33:16 7.6997e-05
12 data[5] *680:A 0.000142856
13 data[6] *680:A 9.87672e-05
14 *658:A *680:A 1.69175e-05
15 *658:A *33:16 0
16 *666:RESET_B *33:16 0
17 *667:RESET_B *33:8 1.28239e-05
*RES
1 *667:Q *33:8 14.3357 
2 *33:8 *33:16 11.9643 
3 *33:16 *657:A0 12.7107 
4 *33:16 *680:A 23.5321 
5 *33:8 *659:A1 19.7643 
*END

*D_NET *34 0.00028005
*CONN
*I *647:A1 I *D sky130_fd_sc_hd__mux2_1
*I *671:X O *D sky130_fd_sc_hd__dlygate4sd3_1
*CAP
1 *647:A1 0.000100842
2 *671:X 0.000100842
3 *647:A1 *682:A 7.83659e-05
*RES
1 *671:X *647:A1 29.1714 
*END

*D_NET *35 0.000575183
*CONN
*I *649:A0 I *D sky130_fd_sc_hd__mux2_1
*I *672:X O *D sky130_fd_sc_hd__dlygate4sd3_1
*CAP
1 *649:A0 0.000103505
2 *672:X 0.000103505
3 *649:A0 *41:29 0.000313215
4 *673:A *649:A0 5.4959e-05
*RES
1 *672:X *649:A0 21.6 
*END

*D_NET *36 0.00074932
*CONN
*I *650:A I *D sky130_fd_sc_hd__clkbuf_1
*I *673:X O *D sky130_fd_sc_hd__dlygate4sd3_1
*CAP
1 *650:A 0.000261252
2 *673:X 0.000261252
3 *650:A *41:22 5.66971e-05
4 *662:CLK *650:A 6.66813e-05
5 *662:D *650:A 0.000103437
*RES
1 *673:X *650:A 32.8679 
*END

*D_NET *37 0.000549495
*CONN
*I *653:A0 I *D sky130_fd_sc_hd__mux2_1
*I *674:X O *D sky130_fd_sc_hd__dlygate4sd3_1
*CAP
1 *653:A0 0.000240299
2 *674:X 0.000240299
3 *653:A0 *41:58 6.88975e-05
*RES
1 *674:X *653:A0 31.4393 
*END

*D_NET *38 0.00232637
*CONN
*I *657:A1 I *D sky130_fd_sc_hd__mux2_1
*I *655:A0 I *D sky130_fd_sc_hd__mux2_1
*I *675:X O *D sky130_fd_sc_hd__dlygate4sd3_1
*CAP
1 *657:A1 0
2 *655:A0 0.00010098
3 *675:X 0.000234187
4 *38:12 0.000335167
5 *655:A0 *657:S 0.000216121
6 *655:A0 *685:A 0.000360894
7 *655:A0 *41:73 5.71472e-05
8 *655:A0 *46:14 2.44318e-05
9 *38:12 *685:A 1.69961e-05
10 *657:A0 *38:12 0.000359801
11 *658:A *38:12 0.00043552
12 *680:A *38:12 0.000185124
*RES
1 *675:X *38:12 25.4071 
2 *38:12 *655:A0 13.55 
3 *38:12 *657:A1 9.3 
*END

*D_NET *39 0.000481522
*CONN
*I *651:A1 I *D sky130_fd_sc_hd__mux2_1
*I *676:X O *D sky130_fd_sc_hd__dlygate4sd3_1
*CAP
1 *651:A1 0.000173278
2 *676:X 0.000173278
3 *651:A1 *651:S 1.6302e-05
4 *651:A1 *672:A 0
5 *651:A1 *44:8 2.03195e-05
6 *651:A1 *44:12 0
7 *652:A *651:A1 0
8 *661:CLK *651:A1 0
9 *663:RESET_B *651:A1 9.83442e-05
*RES
1 *676:X *651:A1 30.7964 
*END

*D_NET *40 0.00657717
*CONN
*I *659:A0 I *D sky130_fd_sc_hd__mux2_1
*I *678:X O *D sky130_fd_sc_hd__buf_1
*CAP
1 *659:A0 0
2 *678:X 0.000307875
3 *40:10 0.00298071
4 *40:8 0.00328859
*RES
1 *678:X *40:8 17.2107 
2 *40:8 *40:10 55.375 
3 *40:10 *659:A0 13.8 
*END

*D_NET *41 0.0146342
*CONN
*I *647:S I *D sky130_fd_sc_hd__mux2_1
*I *659:S I *D sky130_fd_sc_hd__mux2_1
*I *657:S I *D sky130_fd_sc_hd__mux2_1
*I *655:S I *D sky130_fd_sc_hd__mux2_1
*I *653:S I *D sky130_fd_sc_hd__mux2_1
*I *651:S I *D sky130_fd_sc_hd__mux2_1
*I *649:S I *D sky130_fd_sc_hd__mux2_1
*I *679:X O *D sky130_fd_sc_hd__clkbuf_4
*CAP
1 *647:S 0
2 *659:S 0.000222428
3 *657:S 8.86717e-05
4 *655:S 0
5 *653:S 0
6 *651:S 0.000200046
7 *649:S 0
8 *679:X 0
9 *41:73 0.00064275
10 *41:65 0.00110083
11 *41:58 0.000985097
12 *41:29 0.00109023
13 *41:22 0.000669596
14 *41:12 0.000893171
15 *41:8 0.00366975
16 *41:6 0.00321676
17 *651:S *651:A0 0
18 *651:S *44:8 2.89016e-05
19 *41:58 *653:A1 5.50052e-05
20 data[4] *41:73 6.75007e-05
21 *649:A0 *41:29 0.000313215
22 *650:A *41:22 5.66971e-05
23 *651:A1 *651:S 1.6302e-05
24 *652:A *651:S 0
25 *652:A *41:58 0.000149966
26 *653:A0 *41:58 6.88975e-05
27 *655:A0 *657:S 0.000216121
28 *655:A0 *41:73 5.71472e-05
29 *659:A1 *659:S 2.11336e-05
30 *660:A *41:73 2.48421e-05
31 *661:D *41:22 0.000123932
32 *661:D *41:29 2.12647e-05
33 *663:D *651:S 0.000209519
34 *663:RESET_B *651:S 1.55885e-05
35 *665:D *41:73 0
36 *666:RESET_B *41:73 0
37 *667:CLK *41:73 6.14605e-05
38 *669:A *651:S 0.000150043
39 *669:A *41:58 9.66392e-05
40 *31:18 *41:73 0.000100663
41 *32:51 *651:S 0
*RES
1 *679:X *41:6 13.8 
2 *41:6 *41:8 59.9286 
3 *41:8 *41:12 12.0179 
4 *41:12 *41:22 17.25 
5 *41:22 *649:S 9.3 
6 *41:22 *41:29 4.64286 
7 *41:29 *651:S 23.9429 
8 *41:29 *41:58 20.9821 
9 *41:58 *653:S 9.3 
10 *41:58 *41:65 5.46429 
11 *41:65 *41:73 19.375 
12 *41:73 *655:S 9.3 
13 *41:73 *657:S 11.4786 
14 *41:65 *659:S 13.1214 
15 *41:12 *647:S 9.3 
*END

*D_NET *42 0.00199715
*CONN
*I *671:A I *D sky130_fd_sc_hd__dlygate4sd3_1
*I *681:A I *D sky130_fd_sc_hd__clkbuf_4
*I *661:Q O *D sky130_fd_sc_hd__dfrtp_1
*CAP
1 *671:A 0.000170896
2 *681:A 0.000490445
3 *661:Q 0.000205016
4 *42:8 0.000866357
5 *42:8 *682:A 9.90367e-05
6 data[1] *681:A 0.000141734
7 data[1] *42:8 2.36643e-05
*RES
1 *661:Q *42:8 13.1393 
2 *42:8 *681:A 18.05 
3 *42:8 *671:A 20.8536 
*END

*D_NET *43 0.00343795
*CONN