* NGSPICE file created from ota_digpot.ext - technology: sky130A

.subckt ota_digpot inn inp ib out c0 c1 c2 c3 c4 c5 c6 c7 gnd vd
X0 a_26600_6656# a_26282_8172# gnd sky130_fd_pr__res_xhigh_po_0p35 l=5.42e+06u
X1 inn.t85 digpotp_0.tg_7.nctrl.t2 digpotp_0.tg_7.b.t16 vd.t122 sky130_fd_pr__pfet_01v8 ad=0p pd=0u as=0p ps=0u w=5e+06u l=150000u
X2 digpotp_0.tg_4.b.t27 digpotp_0.tg_4.nctrl.t2 inn.t86 vd.t123 sky130_fd_pr__pfet_01v8 ad=0p pd=0u as=0p ps=0u w=5e+06u l=150000u
X3 ota_0.b.t14 inp.t0 ota_0.d.t2 vd.t46 sky130_fd_pr__pfet_01v8 ad=0p pd=0u as=0p ps=0u w=3e+06u l=150000u
X4 digpotp_0.tg_4.b.t7 c0.t0 inn.t73 gnd.t101 sky130_fd_pr__nfet_01v8 ad=0p pd=0u as=0p ps=0u w=5e+06u l=150000u
X5 digpotp_0.tg_3.b.t25 c4.t0 inn.t206 gnd.t170 sky130_fd_pr__nfet_01v8 ad=0p pd=0u as=0p ps=0u w=5e+06u l=150000u
X6 a_23434_4316# a_23116_5832# gnd sky130_fd_pr__res_xhigh_po_0p35 l=5.42e+06u
X7 inn.t22 digpotp_0.tg_0.nctrl.t2 digpotp_0.tg_0.b.t14 vd.t29 sky130_fd_pr__pfet_01v8 ad=0p pd=0u as=0p ps=0u w=5e+06u l=150000u
X8 inn.t202 digpotp_0.tg_2.nctrl.t2 digpotp_0.tg_2.b.t11 vd.t195 sky130_fd_pr__pfet_01v8 ad=0p pd=0u as=0p ps=0u w=5e+06u l=150000u
X9 digpotp_0.tg_5.b.t13 digpotp_0.tg_5.nctrl.t2 inn.t97 vd.t133 sky130_fd_pr__pfet_01v8 ad=0p pd=0u as=0p ps=0u w=5e+06u l=150000u
X10 gnd.t92 gnd.t89 gnd.t91 gnd.t90 sky130_fd_pr__nfet_01v8 ad=0p pd=0u as=0p ps=0u w=5e+06u l=150000u
X11 gnd.t88 gnd.t85 gnd.t87 gnd.t86 sky130_fd_pr__nfet_01v8 ad=0p pd=0u as=0p ps=0u w=5e+06u l=150000u
X12 gnd.t84 gnd.t81 gnd.t83 gnd.t82 sky130_fd_pr__nfet_01v8 ad=0p pd=0u as=0p ps=0u w=5e+06u l=150000u
X13 inn.t15 digpotp_0.tg_3.nctrl.t2 digpotp_0.tg_3.b.t6 vd.t25 sky130_fd_pr__pfet_01v8 ad=0p pd=0u as=0p ps=0u w=5e+06u l=150000u
X14 digpotp_0.tg_2.b.t10 digpotp_0.tg_2.nctrl.t3 inn.t88 vd.t126 sky130_fd_pr__pfet_01v8 ad=0p pd=0u as=0p ps=0u w=5e+06u l=150000u
X15 digpotp_0.tg_3.b.t13 digpotp_0.tg_3.nctrl.t3 inn.t99 vd.t136 sky130_fd_pr__pfet_01v8 ad=0p pd=0u as=0p ps=0u w=5e+06u l=150000u
X16 vd.t101 vd.t98 vd.t100 vd.t99 sky130_fd_pr__pfet_01v8 ad=0p pd=0u as=0p ps=0u w=5e+06u l=150000u
X17 inn.t175 digpotp_0.tg_6.nctrl.t2 digpotp_0.tg_6.b.t11 vd.t163 sky130_fd_pr__pfet_01v8 ad=0p pd=0u as=0p ps=0u w=5e+06u l=150000u
X18 inn.t150 c2.t0 digpotp_0.tg_6.b.t26 gnd.t139 sky130_fd_pr__nfet_01v8 ad=0p pd=0u as=0p ps=0u w=5e+06u l=150000u
X19 inn.t84 digpotp_0.tg_7.nctrl.t3 digpotp_0.tg_7.b.t15 vd.t121 sky130_fd_pr__pfet_01v8 ad=0p pd=0u as=0p ps=0u w=5e+06u l=150000u
X20 inn.t171 c3.t0 digpotp_0.tg_5.b.t24 gnd.t154 sky130_fd_pr__nfet_01v8 ad=0p pd=0u as=0p ps=0u w=5e+06u l=150000u
X21 ota_0.b.t10 ota_0.b.t8 ota_0.b.t9 vd.t44 sky130_fd_pr__pfet_01v8 ad=0p pd=0u as=0p ps=0u w=3e+06u l=150000u
X22 digpotp_0.tg_3.b.t24 c4.t1 inn.t45 gnd.t39 sky130_fd_pr__nfet_01v8 ad=0p pd=0u as=0p ps=0u w=5e+06u l=150000u
X23 digpotp_0.tg_2.b.t21 c5.t0 inn.t60 gnd.t47 sky130_fd_pr__nfet_01v8 ad=0p pd=0u as=0p ps=0u w=5e+06u l=150000u
X24 digpotp_0.tg_0.b.t27 c6.t0 inn.t214 gnd.t177 sky130_fd_pr__nfet_01v8 ad=0p pd=0u as=0p ps=0u w=5e+06u l=150000u
X25 a_25964_6656# a_26282_8172# gnd sky130_fd_pr__res_xhigh_po_0p35 l=5.42e+06u
X26 vd.t18 ib.t4 out.t18 vd.t17 sky130_fd_pr__pfet_01v8 ad=0p pd=0u as=0p ps=0u w=3e+06u l=1e+06u
X27 inn.t207 c0.t1 digpotp_0.tg_4.b.t15 gnd.t171 sky130_fd_pr__nfet_01v8 ad=0p pd=0u as=0p ps=0u w=5e+06u l=150000u
X28 gnd.t80 gnd.t77 gnd.t79 gnd.t78 sky130_fd_pr__nfet_01v8 ad=0p pd=0u as=0p ps=0u w=1e+06u l=1e+06u
X29 digpotp_0.tg_0.b.t13 digpotp_0.tg_0.nctrl.t3 inn.t3 vd.t2 sky130_fd_pr__pfet_01v8 ad=0p pd=0u as=0p ps=0u w=5e+06u l=150000u
X30 digpotp_0.tg_2.b.t9 digpotp_0.tg_2.nctrl.t4 inn.t48 vd.t57 sky130_fd_pr__pfet_01v8 ad=0p pd=0u as=0p ps=0u w=5e+06u l=150000u
X31 digpotp_0.tg_4.b.t26 digpotp_0.tg_4.nctrl.t3 inn.t67 vd.t109 sky130_fd_pr__pfet_01v8 ad=0p pd=0u as=0p ps=0u w=5e+06u l=150000u
X32 inn.t132 inn.t130 inn.t131 gnd.t163 sky130_fd_pr__nfet_01v8 ad=0p pd=0u as=0p ps=0u w=5e+06u l=150000u
X33 inn.t133 c4.t2 digpotp_0.tg_3.b.t23 gnd.t123 sky130_fd_pr__nfet_01v8 ad=0p pd=0u as=0p ps=0u w=5e+06u l=150000u
X34 digpotp_0.tg_1.b.t23 digpotp_0.tg_1.nctrl.t2 inn.t151 vd.t146 sky130_fd_pr__pfet_01v8 ad=0p pd=0u as=0p ps=0u w=5e+06u l=150000u
X35 digpotp_0.tg_6.b.t14 digpotp_0.tg_6.b.t12 digpotp_0.tg_6.b.t13 vd.t185 sky130_fd_pr__pfet_01v8 ad=0p pd=0u as=0p ps=0u w=5e+06u l=150000u
X36 digpotp_0.tg_0.nctrl.t0 c6.t1 gnd.t46 gnd.t45 sky130_fd_pr__nfet_01v8 ad=0p pd=0u as=0p ps=0u w=1e+06u l=150000u
X37 inn.t200 c1.t0 digpotp_0.tg_7.b.t27 gnd.t165 sky130_fd_pr__nfet_01v8 ad=0p pd=0u as=0p ps=0u w=5e+06u l=150000u
X38 vd.t43 ib.t5 out.t17 vd.t42 sky130_fd_pr__pfet_01v8 ad=0p pd=0u as=0p ps=0u w=3e+06u l=1e+06u
X39 inn.t23 digpotp_0.tg_0.nctrl.t4 digpotp_0.tg_0.b.t12 vd.t30 sky130_fd_pr__pfet_01v8 ad=0p pd=0u as=0p ps=0u w=5e+06u l=150000u
X40 inn.t89 digpotp_0.tg_2.nctrl.t5 digpotp_0.tg_2.b.t8 vd.t127 sky130_fd_pr__pfet_01v8 ad=0p pd=0u as=0p ps=0u w=5e+06u l=150000u
X41 digpotp_0.tg_5.b.t12 digpotp_0.tg_5.nctrl.t3 inn.t41 vd.t51 sky130_fd_pr__pfet_01v8 ad=0p pd=0u as=0p ps=0u w=5e+06u l=150000u
X42 inn.t47 digpotp_0.tg_4.nctrl.t4 digpotp_0.tg_4.b.t25 vd.t56 sky130_fd_pr__pfet_01v8 ad=0p pd=0u as=0p ps=0u w=5e+06u l=150000u
X43 digpotp_0.tg_1.nctrl.t0 c7.t0 gnd.t98 gnd.t97 sky130_fd_pr__nfet_01v8 ad=0p pd=0u as=0p ps=0u w=1e+06u l=150000u
X44 inn.t6 digpotp_0.tg_3.nctrl.t4 digpotp_0.tg_3.b.t2 vd.t6 sky130_fd_pr__pfet_01v8 ad=0p pd=0u as=0p ps=0u w=5e+06u l=150000u
X45 digpotp_0.tg_6.b.t25 c2.t1 inn.t149 gnd.t138 sky130_fd_pr__nfet_01v8 ad=0p pd=0u as=0p ps=0u w=5e+06u l=150000u
X46 digpotp_0.tg_5.b.t23 c3.t1 inn.t170 gnd.t153 sky130_fd_pr__nfet_01v8 ad=0p pd=0u as=0p ps=0u w=5e+06u l=150000u
X47 a_25934_4316# a_26252_5832# gnd sky130_fd_pr__res_xhigh_po_0p35 l=5.42e+06u
X48 inn.t176 digpotp_0.tg_6.nctrl.t3 digpotp_0.tg_6.b.t10 vd.t164 sky130_fd_pr__pfet_01v8 ad=0p pd=0u as=0p ps=0u w=5e+06u l=150000u
X49 inn.t56 c7.t1 digpotp_0.tg_1.b.t6 gnd.t44 sky130_fd_pr__nfet_01v8 ad=0p pd=0u as=0p ps=0u w=5e+06u l=150000u
X50 digpotp_0.tg_1.nctrl.t1 c7.t2 vd.t193 vd.t192 sky130_fd_pr__pfet_01v8 ad=0p pd=0u as=0p ps=0u w=3e+06u l=150000u
X51 digpotp_0.tg_0.nctrl.t1 c6.t2 vd.t108 vd.t107 sky130_fd_pr__pfet_01v8 ad=0p pd=0u as=0p ps=0u w=3e+06u l=150000u
X52 gnd.t17 ota_0.d.t5 out.t8 gnd.t16 sky130_fd_pr__nfet_01v8 ad=0p pd=0u as=0p ps=0u w=1e+06u l=1e+06u
X53 digpotp_0.tg_1.b.t7 c7.t3 inn.t70 gnd.t96 sky130_fd_pr__nfet_01v8 ad=0p pd=0u as=0p ps=0u w=5e+06u l=150000u
X54 digpotp_0.tg_4.b.t12 c0.t2 inn.t134 gnd.t124 sky130_fd_pr__nfet_01v8 ad=0p pd=0u as=0p ps=0u w=5e+06u l=150000u
X55 inn.t66 c1.t1 digpotp_0.tg_7.b.t5 gnd.t52 sky130_fd_pr__nfet_01v8 ad=0p pd=0u as=0p ps=0u w=5e+06u l=150000u
X56 gnd.t76 gnd.t73 gnd.t75 gnd.t74 sky130_fd_pr__nfet_01v8 ad=0p pd=0u as=0p ps=0u w=5e+06u l=150000u
X57 inn.t129 inn.t127 inn.t128 gnd.t180 sky130_fd_pr__nfet_01v8 ad=0p pd=0u as=0p ps=0u w=5e+06u l=150000u
X58 inn.t126 inn.t124 inn.t125 gnd.t111 sky130_fd_pr__nfet_01v8 ad=0p pd=0u as=0p ps=0u w=5e+06u l=150000u
X59 digpotp_0.tg_0.b.t1 c6.t3 inn.t65 gnd.t51 sky130_fd_pr__nfet_01v8 ad=0p pd=0u as=0p ps=0u w=5e+06u l=150000u
X60 digpotp_0.tg_6.b.t9 digpotp_0.tg_6.nctrl.t4 inn.t177 vd.t165 sky130_fd_pr__pfet_01v8 ad=0p pd=0u as=0p ps=0u w=5e+06u l=150000u
X61 out.t7 ota_0.d.t6 gnd.t108 gnd.t107 sky130_fd_pr__nfet_01v8 ad=0p pd=0u as=0p ps=0u w=1e+06u l=1e+06u
X62 inn.t16 digpotp_0.tg_1.nctrl.t3 digpotp_0.tg_1.b.t22 vd.t26 sky130_fd_pr__pfet_01v8 ad=0p pd=0u as=0p ps=0u w=5e+06u l=150000u
X63 inn.t92 digpotp_0.tg_0.nctrl.t5 digpotp_0.tg_0.b.t11 vd.t129 sky130_fd_pr__pfet_01v8 ad=0p pd=0u as=0p ps=0u w=5e+06u l=150000u
X64 digpotp_0.tg_0.b.t18 digpotp_0.tg_0.b.t16 digpotp_0.tg_0.b.t17 vd.t197 sky130_fd_pr__pfet_01v8 ad=0p pd=0u as=0p ps=0u w=5e+06u l=150000u
X65 inn.t7 digpotp_0.tg_2.nctrl.t6 digpotp_0.tg_2.b.t7 vd.t7 sky130_fd_pr__pfet_01v8 ad=0p pd=0u as=0p ps=0u w=5e+06u l=150000u
X66 digpotp_0.tg_2.b.t14 digpotp_0.tg_2.b.t12 digpotp_0.tg_2.b.t13 vd.t194 sky130_fd_pr__pfet_01v8 ad=0p pd=0u as=0p ps=0u w=5e+06u l=150000u
X67 inn.t11 digpotp_0.tg_4.nctrl.t5 digpotp_0.tg_4.b.t24 vd.t20 sky130_fd_pr__pfet_01v8 ad=0p pd=0u as=0p ps=0u w=5e+06u l=150000u
X68 digpotp_0.tg_6.b.t24 c2.t2 inn.t148 gnd.t137 sky130_fd_pr__nfet_01v8 ad=0p pd=0u as=0p ps=0u w=5e+06u l=150000u
X69 a_23434_4316# a_23752_5832# gnd sky130_fd_pr__res_xhigh_po_0p35 l=5.42e+06u
X70 inn.t83 digpotp_0.tg_7.nctrl.t4 digpotp_0.tg_7.b.t12 vd.t120 sky130_fd_pr__pfet_01v8 ad=0p pd=0u as=0p ps=0u w=5e+06u l=150000u
X71 gnd.t72 gnd.t69 gnd.t71 gnd.t70 sky130_fd_pr__nfet_01v8 ad=0p pd=0u as=0p ps=0u w=5e+06u l=150000u
X72 inn.t169 c3.t2 digpotp_0.tg_5.b.t22 gnd.t152 sky130_fd_pr__nfet_01v8 ad=0p pd=0u as=0p ps=0u w=5e+06u l=150000u
X73 digpotp_0.tg_5.b.t11 digpotp_0.tg_5.nctrl.t4 inn.t157 vd.t153 sky130_fd_pr__pfet_01v8 ad=0p pd=0u as=0p ps=0u w=5e+06u l=150000u
X74 inn.t147 c2.t3 digpotp_0.tg_6.b.t23 gnd.t136 sky130_fd_pr__nfet_01v8 ad=0p pd=0u as=0p ps=0u w=5e+06u l=150000u
X75 digpotp_0.tg_7.b.t11 digpotp_0.tg_7.nctrl.t5 inn.t82 vd.t119 sky130_fd_pr__pfet_01v8 ad=0p pd=0u as=0p ps=0u w=5e+06u l=150000u
X76 inn.t201 c0.t3 digpotp_0.tg_4.b.t14 gnd.t166 sky130_fd_pr__nfet_01v8 ad=0p pd=0u as=0p ps=0u w=5e+06u l=150000u
X77 inn.t158 digpotp_0.tg_5.nctrl.t5 digpotp_0.tg_5.b.t10 vd.t154 sky130_fd_pr__pfet_01v8 ad=0p pd=0u as=0p ps=0u w=5e+06u l=150000u
X78 ota_0.b.t2 ib.t6 vd.t36 vd.t35 sky130_fd_pr__pfet_01v8 ad=0p pd=0u as=0p ps=0u w=3e+06u l=1e+06u
X79 digpotp_0.tg_0.b.t10 digpotp_0.tg_0.nctrl.t6 inn.t57 vd.t103 sky130_fd_pr__pfet_01v8 ad=0p pd=0u as=0p ps=0u w=5e+06u l=150000u
X80 digpotp_0.tg_2.b.t6 digpotp_0.tg_2.nctrl.t7 inn.t90 vd.t128 sky130_fd_pr__pfet_01v8 ad=0p pd=0u as=0p ps=0u w=5e+06u l=150000u
X81 inn.t178 digpotp_0.tg_6.nctrl.t5 digpotp_0.tg_6.b.t8 vd.t166 sky130_fd_pr__pfet_01v8 ad=0p pd=0u as=0p ps=0u w=5e+06u l=150000u
X82 digpotp_0.tg_7.b.t7 c1.t2 inn.t71 gnd.t99 sky130_fd_pr__nfet_01v8 ad=0p pd=0u as=0p ps=0u w=5e+06u l=150000u
X83 a_26570_4316# a_26888_5832# gnd sky130_fd_pr__res_xhigh_po_0p35 l=5.42e+06u
X84 digpotp_0.tg_0.b.t9 digpotp_0.tg_0.nctrl.t7 inn.t100 vd.t137 sky130_fd_pr__pfet_01v8 ad=0p pd=0u as=0p ps=0u w=5e+06u l=150000u
X85 digpotp_0.tg_0.b.t20 c6.t4 inn.t198 gnd.t164 sky130_fd_pr__nfet_01v8 ad=0p pd=0u as=0p ps=0u w=5e+06u l=150000u
X86 digpotp_0.tg_3.nctrl.t1 c4.t3 gnd.t37 gnd.t36 sky130_fd_pr__nfet_01v8 ad=0p pd=0u as=0p ps=0u w=1e+06u l=150000u
X87 digpotp_0.tg_2.b.t22 c5.t1 inn.t61 gnd.t48 sky130_fd_pr__nfet_01v8 ad=0p pd=0u as=0p ps=0u w=5e+06u l=150000u
X88 digpotp_0.tg_1.b.t21 digpotp_0.tg_1.nctrl.t4 inn.t103 vd.t139 sky130_fd_pr__pfet_01v8 ad=0p pd=0u as=0p ps=0u w=5e+06u l=150000u
X89 digpotp_0.tg_7.b.t20 digpotp_0.tg_7.nctrl.t6 inn.t81 vd.t118 sky130_fd_pr__pfet_01v8 ad=0p pd=0u as=0p ps=0u w=5e+06u l=150000u
X90 digpotp_0.tg_5.b.t21 c3.t3 inn.t168 gnd.t151 sky130_fd_pr__nfet_01v8 ad=0p pd=0u as=0p ps=0u w=5e+06u l=150000u
X91 gnd.t68 gnd.t65 gnd.t67 gnd.t66 sky130_fd_pr__nfet_01v8 ad=0p pd=0u as=0p ps=0u w=5e+06u l=150000u
X92 inn.t174 c5.t2 digpotp_0.tg_2.b.t26 gnd.t156 sky130_fd_pr__nfet_01v8 ad=0p pd=0u as=0p ps=0u w=5e+06u l=150000u
X93 digpotp_0.tg_3.nctrl.t0 c4.t4 vd.t125 vd.t124 sky130_fd_pr__pfet_01v8 ad=0p pd=0u as=0p ps=0u w=3e+06u l=150000u
X94 inn.t39 digpotp_0.tg_5.nctrl.t6 digpotp_0.tg_5.b.t9 vd.t50 sky130_fd_pr__pfet_01v8 ad=0p pd=0u as=0p ps=0u w=5e+06u l=150000u
X95 inn.t27 c4.t5 digpotp_0.tg_3.b.t22 gnd.t22 sky130_fd_pr__nfet_01v8 ad=0p pd=0u as=0p ps=0u w=5e+06u l=150000u
X96 inn.t80 digpotp_0.tg_7.nctrl.t7 digpotp_0.tg_7.b.t19 vd.t117 sky130_fd_pr__pfet_01v8 ad=0p pd=0u as=0p ps=0u w=5e+06u l=150000u
X97 vd.t97 vd.t94 vd.t96 vd.t95 sky130_fd_pr__pfet_01v8 ad=0p pd=0u as=0p ps=0u w=3e+06u l=1e+06u
X98 inn.t187 digpotp_0.tg_0.nctrl.t8 digpotp_0.tg_0.b.t8 vd.t175 sky130_fd_pr__pfet_01v8 ad=0p pd=0u as=0p ps=0u w=5e+06u l=150000u
X99 inn.t59 digpotp_0.tg_2.nctrl.t8 digpotp_0.tg_2.b.t5 vd.t105 sky130_fd_pr__pfet_01v8 ad=0p pd=0u as=0p ps=0u w=5e+06u l=150000u
X100 inn.t46 digpotp_0.tg_4.nctrl.t6 digpotp_0.tg_4.b.t23 vd.t55 sky130_fd_pr__pfet_01v8 ad=0p pd=0u as=0p ps=0u w=5e+06u l=150000u
X101 digpotp_0.tg_3.b.t21 c4.t6 inn.t209 gnd.t172 sky130_fd_pr__nfet_01v8 ad=0p pd=0u as=0p ps=0u w=5e+06u l=150000u
X102 a_26570_4316# a_26252_5832# gnd sky130_fd_pr__res_xhigh_po_0p35 l=5.42e+06u
X103 gnd.t64 gnd.t61 gnd.t63 gnd.t62 sky130_fd_pr__nfet_01v8 ad=0p pd=0u as=0p ps=0u w=5e+06u l=150000u
X104 vd.t16 ib.t7 out.t16 vd.t15 sky130_fd_pr__pfet_01v8 ad=0p pd=0u as=0p ps=0u w=3e+06u l=1e+06u
X105 inn.t50 digpotp_0.tg_3.nctrl.t5 digpotp_0.tg_3.b.t8 vd.t59 sky130_fd_pr__pfet_01v8 ad=0p pd=0u as=0p ps=0u w=5e+06u l=150000u
X106 inn.t173 c5.t3 digpotp_0.tg_2.b.t25 gnd.t155 sky130_fd_pr__nfet_01v8 ad=0p pd=0u as=0p ps=0u w=5e+06u l=150000u
X107 digpotp_0.n8.t7 a_20016_5832# gnd sky130_fd_pr__res_xhigh_po_0p35 l=5.42e+06u
X108 out.t15 ib.t8 vd.t34 vd.t33 sky130_fd_pr__pfet_01v8 ad=0p pd=0u as=0p ps=0u w=3e+06u l=1e+06u
X109 inn.t193 c7.t4 digpotp_0.tg_1.b.t27 gnd.t160 sky130_fd_pr__nfet_01v8 ad=0p pd=0u as=0p ps=0u w=5e+06u l=150000u
X110 inn.t203 c6.t5 digpotp_0.tg_0.b.t21 gnd.t167 sky130_fd_pr__nfet_01v8 ad=0p pd=0u as=0p ps=0u w=5e+06u l=150000u
X111 inn.t123 inn.t121 inn.t122 gnd.t158 sky130_fd_pr__nfet_01v8 ad=0p pd=0u as=0p ps=0u w=5e+06u l=150000u
X112 inn.t167 c3.t4 digpotp_0.tg_5.b.t20 gnd.t150 sky130_fd_pr__nfet_01v8 ad=0p pd=0u as=0p ps=0u w=5e+06u l=150000u
X113 gnd.t110 ota_0.d.t7 out.t6 gnd.t109 sky130_fd_pr__nfet_01v8 ad=0p pd=0u as=0p ps=0u w=1e+06u l=1e+06u
X114 out.t19 a_25646_8172# gnd sky130_fd_pr__res_xhigh_po_0p35 l=5.42e+06u
X115 digpotp_0.tg_6.b.t7 digpotp_0.tg_6.nctrl.t6 inn.t179 vd.t167 sky130_fd_pr__pfet_01v8 ad=0p pd=0u as=0p ps=0u w=5e+06u l=150000u
X116 digpotp_0.tg_7.b.t26 digpotp_0.tg_7.b.t24 digpotp_0.tg_7.b.t25 vd.t183 sky130_fd_pr__pfet_01v8 ad=0p pd=0u as=0p ps=0u w=5e+06u l=150000u
X117 gnd.t24 ota_0.d.t8 out.t5 gnd.t23 sky130_fd_pr__nfet_01v8 ad=0p pd=0u as=0p ps=0u w=1e+06u l=1e+06u
X118 digpotp_0.tg_1.b.t3 c7.t5 inn.t38 gnd.t33 sky130_fd_pr__nfet_01v8 ad=0p pd=0u as=0p ps=0u w=5e+06u l=150000u
X119 digpotp_0.tg_4.b.t1 c0.t4 inn.t19 gnd.t10 sky130_fd_pr__nfet_01v8 ad=0p pd=0u as=0p ps=0u w=5e+06u l=150000u
X120 ib.t3 ib.t2 vd.t54 vd.t53 sky130_fd_pr__pfet_01v8 ad=0p pd=0u as=0p ps=0u w=3e+06u l=1e+06u
X121 out.t4 ota_0.d.t9 gnd.t26 gnd.t25 sky130_fd_pr__nfet_01v8 ad=0p pd=0u as=0p ps=0u w=1e+06u l=1e+06u
X122 digpotp_0.tg_7.b.t4 c1.t3 inn.t62 gnd.t49 sky130_fd_pr__nfet_01v8 ad=0p pd=0u as=0p ps=0u w=5e+06u l=150000u
X123 digpotp_0.tg_6.nctrl.t1 c2.t4 gnd.t135 gnd.t134 sky130_fd_pr__nfet_01v8 ad=0p pd=0u as=0p ps=0u w=1e+06u l=150000u
X124 out.t14 ib.t9 vd.t10 vd.t9 sky130_fd_pr__pfet_01v8 ad=0p pd=0u as=0p ps=0u w=3e+06u l=1e+06u
X125 digpotp_0.tg_1.b.t20 digpotp_0.tg_1.nctrl.t5 inn.t152 vd.t147 sky130_fd_pr__pfet_01v8 ad=0p pd=0u as=0p ps=0u w=5e+06u l=150000u
X126 digpotp_0.tg_0.b.t7 digpotp_0.tg_0.nctrl.t9 inn.t12 vd.t21 sky130_fd_pr__pfet_01v8 ad=0p pd=0u as=0p ps=0u w=5e+06u l=150000u
X127 digpotp_0.tg_2.b.t4 digpotp_0.tg_2.nctrl.t9 inn.t93 vd.t130 sky130_fd_pr__pfet_01v8 ad=0p pd=0u as=0p ps=0u w=5e+06u l=150000u
X128 digpotp_0.tg_4.b.t22 digpotp_0.tg_4.nctrl.t7 inn.t186 vd.t174 sky130_fd_pr__pfet_01v8 ad=0p pd=0u as=0p ps=0u w=5e+06u l=150000u
X129 digpotp_0.tg_3.b.t5 digpotp_0.tg_3.nctrl.t6 inn.t14 vd.t24 sky130_fd_pr__pfet_01v8 ad=0p pd=0u as=0p ps=0u w=5e+06u l=150000u
X130 inn.t146 c2.t5 digpotp_0.tg_6.b.t22 gnd.t133 sky130_fd_pr__nfet_01v8 ad=0p pd=0u as=0p ps=0u w=5e+06u l=150000u
X131 digpotp_0.tg_6.nctrl.t0 c2.t6 vd.t145 vd.t144 sky130_fd_pr__pfet_01v8 ad=0p pd=0u as=0p ps=0u w=3e+06u l=150000u
X132 digpotp_0.tg_4.nctrl.t1 c0.t5 gnd.t179 gnd.t178 sky130_fd_pr__nfet_01v8 ad=0p pd=0u as=0p ps=0u w=1e+06u l=150000u
X133 digpotp_0.tg_7.b.t18 digpotp_0.tg_7.nctrl.t8 inn.t79 vd.t116 sky130_fd_pr__pfet_01v8 ad=0p pd=0u as=0p ps=0u w=5e+06u l=150000u
X134 inn.t101 digpotp_0.tg_4.nctrl.t8 digpotp_0.tg_4.b.t21 vd.t138 sky130_fd_pr__pfet_01v8 ad=0p pd=0u as=0p ps=0u w=5e+06u l=150000u
X135 digpotp_0.n8.t6 a_25616_5832# gnd sky130_fd_pr__res_xhigh_po_0p35 l=5.42e+06u
X136 inn.t156 digpotp_0.tg_5.nctrl.t7 digpotp_0.tg_5.b.t8 vd.t152 sky130_fd_pr__pfet_01v8 ad=0p pd=0u as=0p ps=0u w=5e+06u l=150000u
X137 digpotp_0.tg_6.b.t21 c2.t7 inn.t145 gnd.t132 sky130_fd_pr__nfet_01v8 ad=0p pd=0u as=0p ps=0u w=5e+06u l=150000u
X138 gnd.t60 gnd.t57 gnd.t59 gnd.t58 sky130_fd_pr__nfet_01v8 ad=0p pd=0u as=0p ps=0u w=5e+06u l=150000u
X139 digpotp_0.tg_1.b.t5 digpotp_0.n8.t1 gnd sky130_fd_pr__res_high_po_0p35 l=1e+06u
X140 digpotp_0.tg_7.b.t21 c1.t4 inn.t106 gnd.t115 sky130_fd_pr__nfet_01v8 ad=0p pd=0u as=0p ps=0u w=5e+06u l=150000u
X141 inn.t180 digpotp_0.tg_6.nctrl.t7 digpotp_0.tg_6.b.t6 vd.t168 sky130_fd_pr__pfet_01v8 ad=0p pd=0u as=0p ps=0u w=5e+06u l=150000u
X142 digpotp_0.tg_4.nctrl.t0 c0.t6 vd.t179 vd.t178 sky130_fd_pr__pfet_01v8 ad=0p pd=0u as=0p ps=0u w=3e+06u l=150000u
X143 a_27236_6656# a_26918_8172# gnd sky130_fd_pr__res_xhigh_po_0p35 l=5.42e+06u
X144 digpotp_0.tg_2.nctrl.t0 c5.t4 gnd.t7 gnd.t6 sky130_fd_pr__nfet_01v8 ad=0p pd=0u as=0p ps=0u w=1e+06u l=150000u
X145 digpotp_0.tg_0.b.t2 digpotp_0.n8.t4 gnd sky130_fd_pr__res_xhigh_po_0p35 l=520000u
X146 digpotp_0.tg_2.b.t24 digpotp_0.n8.t5 gnd sky130_fd_pr__res_xhigh_po_0p35 l=1.22e+06u
X147 digpotp_0.tg_1.b.t19 digpotp_0.tg_1.nctrl.t6 inn.t0 vd.t1 sky130_fd_pr__pfet_01v8 ad=0p pd=0u as=0p ps=0u w=5e+06u l=150000u
X148 inn.t139 c1.t5 digpotp_0.tg_7.b.t22 gnd.t127 sky130_fd_pr__nfet_01v8 ad=0p pd=0u as=0p ps=0u w=5e+06u l=150000u
X149 inn.t120 inn.t118 inn.t119 gnd.t116 sky130_fd_pr__nfet_01v8 ad=0p pd=0u as=0p ps=0u w=5e+06u l=150000u
X150 inn.t21 digpotp_0.tg_0.nctrl.t10 digpotp_0.tg_0.b.t6 vd.t28 sky130_fd_pr__pfet_01v8 ad=0p pd=0u as=0p ps=0u w=5e+06u l=150000u
X151 inn.t155 digpotp_0.tg_4.nctrl.t9 digpotp_0.tg_4.b.t20 vd.t151 sky130_fd_pr__pfet_01v8 ad=0p pd=0u as=0p ps=0u w=5e+06u l=150000u
X152 inn.t205 c6.t6 digpotp_0.tg_0.b.t22 gnd.t169 sky130_fd_pr__nfet_01v8 ad=0p pd=0u as=0p ps=0u w=5e+06u l=150000u
X153 digpotp_0.tg_5.b.t19 c3.t5 inn.t166 gnd.t149 sky130_fd_pr__nfet_01v8 ad=0p pd=0u as=0p ps=0u w=5e+06u l=150000u
X154 inn.t34 c5.t5 digpotp_0.tg_2.b.t19 gnd.t31 sky130_fd_pr__nfet_01v8 ad=0p pd=0u as=0p ps=0u w=5e+06u l=150000u
X155 inn.t94 digpotp_0.tg_1.nctrl.t7 digpotp_0.tg_1.b.t18 vd.t132 sky130_fd_pr__pfet_01v8 ad=0p pd=0u as=0p ps=0u w=5e+06u l=150000u
X156 digpotp_0.tg_2.nctrl.t1 c5.t6 vd.t177 vd.t176 sky130_fd_pr__pfet_01v8 ad=0p pd=0u as=0p ps=0u w=3e+06u l=150000u
X157 digpotp_0.tg_4.b.t5 digpotp_0.tg_4.b.t3 digpotp_0.tg_4.b.t4 vd.t188 sky130_fd_pr__pfet_01v8 ad=0p pd=0u as=0p ps=0u w=5e+06u l=150000u
X158 inn.t87 c4.t7 digpotp_0.tg_3.b.t20 gnd.t102 sky130_fd_pr__nfet_01v8 ad=0p pd=0u as=0p ps=0u w=5e+06u l=150000u
X159 vd.t93 vd.t90 vd.t92 vd.t91 sky130_fd_pr__pfet_01v8 ad=0p pd=0u as=0p ps=0u w=3e+06u l=1e+06u
X160 inn.t78 digpotp_0.tg_7.nctrl.t9 digpotp_0.tg_7.b.t17 vd.t115 sky130_fd_pr__pfet_01v8 ad=0p pd=0u as=0p ps=0u w=5e+06u l=150000u
X161 digpotp_0.tg_2.b.t18 c5.t7 inn.t29 gnd.t27 sky130_fd_pr__nfet_01v8 ad=0p pd=0u as=0p ps=0u w=5e+06u l=150000u
X162 digpotp_0.tg_5.b.t7 digpotp_0.tg_5.nctrl.t8 inn.t35 vd.t47 sky130_fd_pr__pfet_01v8 ad=0p pd=0u as=0p ps=0u w=5e+06u l=150000u
X163 digpotp_0.tg_3.b.t19 c4.t8 inn.t51 gnd.t40 sky130_fd_pr__nfet_01v8 ad=0p pd=0u as=0p ps=0u w=5e+06u l=150000u
X164 a_27206_4316# a_26888_5832# gnd sky130_fd_pr__res_xhigh_po_0p35 l=5.42e+06u
X165 digpotp_0.tg_6.b.t5 digpotp_0.tg_6.nctrl.t8 inn.t172 vd.t161 sky130_fd_pr__pfet_01v8 ad=0p pd=0u as=0p ps=0u w=5e+06u l=150000u
X166 inn.t54 c1.t6 digpotp_0.tg_7.b.t2 gnd.t42 sky130_fd_pr__nfet_01v8 ad=0p pd=0u as=0p ps=0u w=5e+06u l=150000u
X167 digpotp_0.tg_6.b.t27 a_20016_5832# gnd sky130_fd_pr__res_xhigh_po_0p35 l=5.42e+06u
X168 digpotp_0.tg_5.nctrl.t1 c3.t6 gnd.t148 gnd.t147 sky130_fd_pr__nfet_01v8 ad=0p pd=0u as=0p ps=0u w=1e+06u l=150000u
X169 ota_0.c digpotp_0.n8.t9 ota_0.b.t4 vd.t48 sky130_fd_pr__pfet_01v8 ad=1.92e+12p pd=1.328e+07u as=0p ps=0u w=3e+06u l=150000u
X170 inn.t190 digpotp_0.tg_5.nctrl.t9 digpotp_0.tg_5.b.t6 vd.t181 sky130_fd_pr__pfet_01v8 ad=0p pd=0u as=0p ps=0u w=5e+06u l=150000u
X171 a_25964_6656# a_25646_8172# gnd sky130_fd_pr__res_xhigh_po_0p35 l=5.42e+06u
X172 digpotp_0.tg_3.b.t1 digpotp_0.tg_3.nctrl.t7 inn.t5 vd.t5 sky130_fd_pr__pfet_01v8 ad=0p pd=0u as=0p ps=0u w=5e+06u l=150000u
X173 digpotp_0.tg_4.b.t19 digpotp_0.tg_4.nctrl.t10 inn.t43 vd.t52 sky130_fd_pr__pfet_01v8 ad=0p pd=0u as=0p ps=0u w=5e+06u l=150000u
X174 digpotp_0.tg_2.b.t27 c5.t8 inn.t215 gnd.t181 sky130_fd_pr__nfet_01v8 ad=0p pd=0u as=0p ps=0u w=5e+06u l=150000u
X175 digpotp_0.tg_5.nctrl.t0 c3.t7 vd.t160 vd.t159 sky130_fd_pr__pfet_01v8 ad=0p pd=0u as=0p ps=0u w=3e+06u l=150000u
X176 digpotp_0.tg_1.b.t11 c7.t6 inn.t153 gnd.t140 sky130_fd_pr__nfet_01v8 ad=0p pd=0u as=0p ps=0u w=5e+06u l=150000u
X177 digpotp_0.tg_0.b.t26 c6.t7 inn.t213 gnd.t176 sky130_fd_pr__nfet_01v8 ad=0p pd=0u as=0p ps=0u w=5e+06u l=150000u
X178 digpotp_0.tg_4.b.t10 c0.t7 inn.t98 gnd.t106 sky130_fd_pr__nfet_01v8 ad=0p pd=0u as=0p ps=0u w=5e+06u l=150000u
X179 ota_0.b.t13 inp.t1 ota_0.d.t4 vd.t135 sky130_fd_pr__pfet_01v8 ad=0p pd=0u as=0p ps=0u w=3e+06u l=150000u
X180 vd.t150 ib.t0 ib.t1 vd.t149 sky130_fd_pr__pfet_01v8 ad=0p pd=0u as=0p ps=0u w=3e+06u l=1e+06u
X181 digpotp_0.tg_7.b.t14 digpotp_0.tg_7.nctrl.t10 inn.t77 vd.t114 sky130_fd_pr__pfet_01v8 ad=0p pd=0u as=0p ps=0u w=5e+06u l=150000u
X182 inn.t117 inn.t115 inn.t116 gnd.t117 sky130_fd_pr__nfet_01v8 ad=0p pd=0u as=0p ps=0u w=5e+06u l=150000u
X183 inn.t104 c7.t7 digpotp_0.tg_1.b.t9 gnd.t113 sky130_fd_pr__nfet_01v8 ad=0p pd=0u as=0p ps=0u w=5e+06u l=150000u
X184 inn.t102 c0.t8 digpotp_0.tg_4.b.t11 gnd.t112 sky130_fd_pr__nfet_01v8 ad=0p pd=0u as=0p ps=0u w=5e+06u l=150000u
X185 inn.t204 c4.t9 digpotp_0.tg_3.b.t18 gnd.t168 sky130_fd_pr__nfet_01v8 ad=0p pd=0u as=0p ps=0u w=5e+06u l=150000u
X186 digpotp_0.tg_2.b.t3 digpotp_0.tg_2.nctrl.t10 inn.t136 vd.t142 sky130_fd_pr__pfet_01v8 ad=0p pd=0u as=0p ps=0u w=5e+06u l=150000u
X187 inn.t195 digpotp_0.tg_5.nctrl.t10 digpotp_0.tg_5.b.t5 vd.t187 sky130_fd_pr__pfet_01v8 ad=0p pd=0u as=0p ps=0u w=5e+06u l=150000u
X188 digpotp_0.tg_5.b.t27 digpotp_0.tg_5.b.t25 digpotp_0.tg_5.b.t26 vd.t184 sky130_fd_pr__pfet_01v8 ad=0p pd=0u as=0p ps=0u w=5e+06u l=150000u
X189 gnd.t56 gnd.t53 gnd.t55 gnd.t54 sky130_fd_pr__nfet_01v8 ad=0p pd=0u as=0p ps=0u w=1e+06u l=1e+06u
X190 digpotp_0.tg_3.b.t7 digpotp_0.tg_3.nctrl.t8 inn.t33 vd.t45 sky130_fd_pr__pfet_01v8 ad=0p pd=0u as=0p ps=0u w=5e+06u l=150000u
X191 digpotp_0.tg_3.b.t12 digpotp_0.n8.t3 gnd sky130_fd_pr__res_xhigh_po_0p35 l=2.62e+06u
X192 inn.t144 c2.t8 digpotp_0.tg_6.b.t20 gnd.t131 sky130_fd_pr__nfet_01v8 ad=0p pd=0u as=0p ps=0u w=5e+06u l=150000u
X193 a_25934_4316# a_25616_5832# gnd sky130_fd_pr__res_xhigh_po_0p35 l=5.42e+06u
X194 inn.t135 digpotp_0.tg_4.nctrl.t11 digpotp_0.tg_4.b.t18 vd.t141 sky130_fd_pr__pfet_01v8 ad=0p pd=0u as=0p ps=0u w=5e+06u l=150000u
X195 inn.t165 digpotp_0.tg_3.nctrl.t9 digpotp_0.tg_3.b.t27 vd.t158 sky130_fd_pr__pfet_01v8 ad=0p pd=0u as=0p ps=0u w=5e+06u l=150000u
X196 a_27236_6656# a_27554_8172# gnd sky130_fd_pr__res_xhigh_po_0p35 l=5.42e+06u
X197 vd.t89 vd.t86 vd.t88 vd.t87 sky130_fd_pr__pfet_01v8 ad=0p pd=0u as=0p ps=0u w=5e+06u l=150000u
X198 vd.t85 vd.t82 vd.t84 vd.t83 sky130_fd_pr__pfet_01v8 ad=0p pd=0u as=0p ps=0u w=5e+06u l=150000u
X199 vd.t81 vd.t78 vd.t80 vd.t79 sky130_fd_pr__pfet_01v8 ad=0p pd=0u as=0p ps=0u w=5e+06u l=150000u
X200 digpotp_0.tg_7.nctrl.t0 c1.t7 gnd.t95 gnd.t94 sky130_fd_pr__nfet_01v8 ad=0p pd=0u as=0p ps=0u w=1e+06u l=150000u
X201 digpotp_0.tg_6.b.t19 c2.t9 inn.t143 gnd.t130 sky130_fd_pr__nfet_01v8 ad=0p pd=0u as=0p ps=0u w=5e+06u l=150000u
X202 inn.t105 c7.t8 digpotp_0.tg_1.b.t10 gnd.t114 sky130_fd_pr__nfet_01v8 ad=0p pd=0u as=0p ps=0u w=5e+06u l=150000u
X203 inn.t42 c0.t9 digpotp_0.tg_4.b.t2 gnd.t35 sky130_fd_pr__nfet_01v8 ad=0p pd=0u as=0p ps=0u w=5e+06u l=150000u
X204 inn.t196 c6.t8 digpotp_0.tg_0.b.t19 gnd.t161 sky130_fd_pr__nfet_01v8 ad=0p pd=0u as=0p ps=0u w=5e+06u l=150000u
X205 digpotp_0.tg_5.b.t4 digpotp_0.tg_5.nctrl.t11 inn.t28 vd.t39 sky130_fd_pr__pfet_01v8 ad=0p pd=0u as=0p ps=0u w=5e+06u l=150000u
X206 inn.t55 c1.t8 digpotp_0.tg_7.b.t3 gnd.t43 sky130_fd_pr__nfet_01v8 ad=0p pd=0u as=0p ps=0u w=5e+06u l=150000u
X207 digpotp_0.tg_6.b.t4 digpotp_0.tg_6.nctrl.t9 inn.t181 vd.t169 sky130_fd_pr__pfet_01v8 ad=0p pd=0u as=0p ps=0u w=5e+06u l=150000u
X208 digpotp_0.tg_7.nctrl.t1 c1.t9 vd.t190 vd.t189 sky130_fd_pr__pfet_01v8 ad=0p pd=0u as=0p ps=0u w=3e+06u l=150000u
X209 out.t3 ota_0.d.t10 gnd.t13 gnd.t12 sky130_fd_pr__nfet_01v8 ad=0p pd=0u as=0p ps=0u w=1e+06u l=1e+06u
X210 digpotp_0.tg_5.b.t1 c3.t8 inn.t108 gnd.t122 sky130_fd_pr__nfet_01v8 ad=0p pd=0u as=0p ps=0u w=5e+06u l=150000u
X211 inn.t37 digpotp_0.tg_1.nctrl.t8 digpotp_0.tg_1.b.t17 vd.t49 sky130_fd_pr__pfet_01v8 ad=0p pd=0u as=0p ps=0u w=5e+06u l=150000u
X212 digpotp_0.tg_7.b.t6 c1.t10 inn.t68 gnd.t93 sky130_fd_pr__nfet_01v8 ad=0p pd=0u as=0p ps=0u w=5e+06u l=150000u
X213 out.t20 ota_0.d.t1 sky130_fd_pr__cap_mim_m3_1 l=1.4e+07u w=2.4e+07u
X214 ota_0.b.t1 ib.t10 vd.t32 vd.t31 sky130_fd_pr__pfet_01v8 ad=0p pd=0u as=0p ps=0u w=3e+06u l=1e+06u
X215 digpotp_0.tg_0.b.t5 digpotp_0.tg_0.nctrl.t11 inn.t58 vd.t104 sky130_fd_pr__pfet_01v8 ad=0p pd=0u as=0p ps=0u w=5e+06u l=150000u
X216 inn.t76 digpotp_0.tg_7.nctrl.t11 digpotp_0.tg_7.b.t13 vd.t113 sky130_fd_pr__pfet_01v8 ad=0p pd=0u as=0p ps=0u w=5e+06u l=150000u
X217 gnd.t5 ota_0.c ota_0.c gnd.t4 sky130_fd_pr__nfet_01v8 ad=0p pd=0u as=2.9e+11p ps=2.58e+06u w=1e+06u l=1e+06u
X218 inn.t164 c3.t9 digpotp_0.tg_5.b.t18 gnd.t146 sky130_fd_pr__nfet_01v8 ad=0p pd=0u as=0p ps=0u w=5e+06u l=150000u
X219 a_27206_4316# a_27524_5832# gnd sky130_fd_pr__res_xhigh_po_0p35 l=5.42e+06u
X220 digpotp_0.tg_1.b.t16 digpotp_0.tg_1.nctrl.t9 inn.t17 vd.t27 sky130_fd_pr__pfet_01v8 ad=0p pd=0u as=0p ps=0u w=5e+06u l=150000u
X221 digpotp_0.tg_4.b.t17 digpotp_0.tg_4.nctrl.t12 inn.t154 vd.t148 sky130_fd_pr__pfet_01v8 ad=0p pd=0u as=0p ps=0u w=5e+06u l=150000u
X222 digpotp_0.tg_0.b.t25 c6.t9 inn.t212 gnd.t175 sky130_fd_pr__nfet_01v8 ad=0p pd=0u as=0p ps=0u w=5e+06u l=150000u
X223 digpotp_0.tg_3.b.t17 c4.t10 inn.t20 gnd.t18 sky130_fd_pr__nfet_01v8 ad=0p pd=0u as=0p ps=0u w=5e+06u l=150000u
X224 digpotp_0.tg_2.b.t17 c5.t9 inn.t26 gnd.t21 sky130_fd_pr__nfet_01v8 ad=0p pd=0u as=0p ps=0u w=5e+06u l=150000u
X225 digpotp_0.tg_7.b.t8 a_23752_5832# gnd sky130_fd_pr__res_xhigh_po_0p35 l=5.42e+06u
X226 digpotp_0.tg_6.b.t3 digpotp_0.tg_6.nctrl.t10 inn.t182 vd.t170 sky130_fd_pr__pfet_01v8 ad=0p pd=0u as=0p ps=0u w=5e+06u l=150000u
X227 ota_0.d.t0 ota_0.c gnd.t3 gnd.t2 sky130_fd_pr__nfet_01v8 ad=0p pd=0u as=0p ps=0u w=1e+06u l=1e+06u
X228 digpotp_0.tg_1.b.t1 c7.t9 inn.t10 gnd.t8 sky130_fd_pr__nfet_01v8 ad=0p pd=0u as=0p ps=0u w=5e+06u l=150000u
X229 inn.t189 digpotp_0.tg_5.nctrl.t12 digpotp_0.tg_5.b.t3 vd.t180 sky130_fd_pr__pfet_01v8 ad=0p pd=0u as=0p ps=0u w=5e+06u l=150000u
X230 inn.t32 c4.t11 digpotp_0.tg_3.b.t16 gnd.t30 sky130_fd_pr__nfet_01v8 ad=0p pd=0u as=0p ps=0u w=5e+06u l=150000u
X231 inn.t184 digpotp_0.tg_6.nctrl.t11 digpotp_0.tg_6.b.t2 vd.t172 sky130_fd_pr__pfet_01v8 ad=0p pd=0u as=0p ps=0u w=5e+06u l=150000u
X232 digpotp_0.tg_7.b.t23 c1.t11 inn.t191 gnd.t159 sky130_fd_pr__nfet_01v8 ad=0p pd=0u as=0p ps=0u w=5e+06u l=150000u
X233 inn.t163 c3.t10 digpotp_0.tg_5.b.t17 gnd.t145 sky130_fd_pr__nfet_01v8 ad=0p pd=0u as=0p ps=0u w=5e+06u l=150000u
X234 ota_0.b.t11 digpotp_0.n8.t10 ota_0.c vd.t131 sky130_fd_pr__pfet_01v8 ad=0p pd=0u as=0p ps=0u w=3e+06u l=150000u
X235 inn.t9 digpotp_0.tg_1.nctrl.t10 digpotp_0.tg_1.b.t15 vd.t19 sky130_fd_pr__pfet_01v8 ad=0p pd=0u as=0p ps=0u w=5e+06u l=150000u
X236 vd.t77 vd.t74 vd.t76 vd.t75 sky130_fd_pr__pfet_01v8 ad=0p pd=0u as=0p ps=0u w=5e+06u l=150000u
X237 digpotp_0.tg_7.b.t10 digpotp_0.tg_7.nctrl.t12 inn.t75 vd.t112 sky130_fd_pr__pfet_01v8 ad=0p pd=0u as=0p ps=0u w=5e+06u l=150000u
X238 inn.t18 c7.t10 digpotp_0.tg_1.b.t2 gnd.t9 sky130_fd_pr__nfet_01v8 ad=0p pd=0u as=0p ps=0u w=5e+06u l=150000u
X239 inn.t211 c6.t10 digpotp_0.tg_0.b.t24 gnd.t174 sky130_fd_pr__nfet_01v8 ad=0p pd=0u as=0p ps=0u w=5e+06u l=150000u
X240 inn.t72 c0.t10 digpotp_0.tg_4.b.t6 gnd.t100 sky130_fd_pr__nfet_01v8 ad=0p pd=0u as=0p ps=0u w=5e+06u l=150000u
X241 inn.t64 c5.t10 digpotp_0.tg_2.b.t23 gnd.t50 sky130_fd_pr__nfet_01v8 ad=0p pd=0u as=0p ps=0u w=5e+06u l=150000u
X242 ota_0.d.t3 inp.t2 ota_0.b.t12 vd.t3 sky130_fd_pr__pfet_01v8 ad=0p pd=0u as=0p ps=0u w=3e+06u l=150000u
X243 digpotp_0.tg_2.b.t2 digpotp_0.tg_2.nctrl.t11 inn.t49 vd.t58 sky130_fd_pr__pfet_01v8 ad=0p pd=0u as=0p ps=0u w=5e+06u l=150000u
X244 inn.t31 c4.t12 digpotp_0.tg_3.b.t15 gnd.t29 sky130_fd_pr__nfet_01v8 ad=0p pd=0u as=0p ps=0u w=5e+06u l=150000u
X245 digpotp_0.tg_0.b.t4 digpotp_0.tg_0.nctrl.t12 inn.t107 vd.t140 sky130_fd_pr__pfet_01v8 ad=0p pd=0u as=0p ps=0u w=5e+06u l=150000u
X246 digpotp_0.tg_4.b.t0 c0.t11 inn.t2 gnd.t1 sky130_fd_pr__nfet_01v8 ad=0p pd=0u as=0p ps=0u w=5e+06u l=150000u
X247 digpotp_0.tg_5.b.t2 digpotp_0.tg_5.nctrl.t13 inn.t194 vd.t186 sky130_fd_pr__pfet_01v8 ad=0p pd=0u as=0p ps=0u w=5e+06u l=150000u
X248 vd.t73 vd.t70 vd.t72 vd.t71 sky130_fd_pr__pfet_01v8 ad=0p pd=0u as=0p ps=0u w=5e+06u l=150000u
X249 digpotp_0.n8.t8 a_27554_8172# gnd sky130_fd_pr__res_xhigh_po_0p35 l=5.42e+06u
X250 vd.t41 ib.t11 out.t13 vd.t40 sky130_fd_pr__pfet_01v8 ad=0p pd=0u as=0p ps=0u w=3e+06u l=1e+06u
X251 inn.t52 digpotp_0.tg_2.nctrl.t12 digpotp_0.tg_2.b.t1 vd.t102 sky130_fd_pr__pfet_01v8 ad=0p pd=0u as=0p ps=0u w=5e+06u l=150000u
X252 inn.t8 digpotp_0.tg_3.nctrl.t10 digpotp_0.tg_3.b.t3 vd.t8 sky130_fd_pr__pfet_01v8 ad=0p pd=0u as=0p ps=0u w=5e+06u l=150000u
X253 digpotp_0.n8.t2 a_23116_5832# gnd sky130_fd_pr__res_xhigh_po_0p35 l=5.42e+06u
X254 inn.t114 inn.t112 inn.t113 gnd.t11 sky130_fd_pr__nfet_01v8 ad=0p pd=0u as=0p ps=0u w=5e+06u l=150000u
X255 digpotp_0.tg_6.b.t18 c2.t10 inn.t142 gnd.t129 sky130_fd_pr__nfet_01v8 ad=0p pd=0u as=0p ps=0u w=5e+06u l=150000u