* NGSPICE file created from dpga.ext - technology: sky130A

.subckt ota_digpot inn inp ib out c0 c1 c2 c3 c4 c5 c6 c7 gnd vd VSUBS
X0 a_26600_6656# a_26282_8172# gnd sky130_fd_pr__res_xhigh_po_0p35 l=5.42e+06u
X1 inn digpotp_0.tg_7.nctrl digpotp_0.tg_7.b vd sky130_fd_pr__pfet_01v8 ad=9.08e+13p pd=5.9632e+08u as=1.28e+13p ps=8.512e+07u w=5e+06u l=150000u
X2 digpotp_0.tg_4.b digpotp_0.tg_4.nctrl inn vd sky130_fd_pr__pfet_01v8 ad=1.28e+13p pd=8.512e+07u as=0p ps=0u w=5e+06u l=150000u
X3 ota_0.b inp ota_0.d vd sky130_fd_pr__pfet_01v8 ad=9.06e+12p pd=6.604e+07u as=1.92e+12p ps=1.328e+07u w=3e+06u l=150000u
X4 digpotp_0.tg_4.b c0 inn gnd sky130_fd_pr__nfet_01v8 ad=1.135e+13p pd=7.454e+07u as=1.024e+14p ps=6.8096e+08u w=5e+06u l=150000u
X5 digpotp_0.tg_3.b c4 inn gnd sky130_fd_pr__nfet_01v8 ad=1.135e+13p pd=7.454e+07u as=0p ps=0u w=5e+06u l=150000u
X6 a_23434_4316# a_23116_5832# gnd sky130_fd_pr__res_xhigh_po_0p35 l=5.42e+06u
X7 inn digpotp_0.tg_0.nctrl digpotp_0.tg_0.b vd sky130_fd_pr__pfet_01v8 ad=0p pd=0u as=1.28e+13p ps=8.512e+07u w=5e+06u l=150000u
X8 inn digpotp_0.tg_2.nctrl digpotp_0.tg_2.b vd sky130_fd_pr__pfet_01v8 ad=0p pd=0u as=1.28e+13p ps=8.512e+07u w=5e+06u l=150000u
X9 digpotp_0.tg_5.b digpotp_0.tg_5.nctrl inn vd sky130_fd_pr__pfet_01v8 ad=1.28e+13p pd=8.512e+07u as=0p ps=0u w=5e+06u l=150000u
X10 gnd gnd gnd gnd sky130_fd_pr__nfet_01v8 ad=2.871e+13p pd=2.183e+08u as=0p ps=0u w=5e+06u l=150000u
X11 gnd gnd gnd gnd sky130_fd_pr__nfet_01v8 ad=0p pd=0u as=0p ps=0u w=5e+06u l=150000u
X12 gnd gnd gnd gnd sky130_fd_pr__nfet_01v8 ad=0p pd=0u as=0p ps=0u w=5e+06u l=150000u
X13 inn digpotp_0.tg_3.nctrl digpotp_0.tg_3.b vd sky130_fd_pr__pfet_01v8 ad=0p pd=0u as=1.28e+13p ps=8.512e+07u w=5e+06u l=150000u
X14 digpotp_0.tg_2.b digpotp_0.tg_2.nctrl inn vd sky130_fd_pr__pfet_01v8 ad=0p pd=0u as=0p ps=0u w=5e+06u l=150000u
X15 digpotp_0.tg_3.b digpotp_0.tg_3.nctrl inn vd sky130_fd_pr__pfet_01v8 ad=0p pd=0u as=0p ps=0u w=5e+06u l=150000u
X16 vd vd vd vd sky130_fd_pr__pfet_01v8 ad=4.234e+13p pd=3.1404e+08u as=0p ps=0u w=5e+06u l=150000u
X17 inn digpotp_0.tg_6.nctrl digpotp_0.tg_6.b vd sky130_fd_pr__pfet_01v8 ad=0p pd=0u as=1.28e+13p ps=8.512e+07u w=5e+06u l=150000u
X18 inn c2 digpotp_0.tg_6.b gnd sky130_fd_pr__nfet_01v8 ad=0p pd=0u as=1.135e+13p ps=7.454e+07u w=5e+06u l=150000u
X19 inn digpotp_0.tg_7.nctrl digpotp_0.tg_7.b vd sky130_fd_pr__pfet_01v8 ad=0p pd=0u as=0p ps=0u w=5e+06u l=150000u
X20 inn c3 digpotp_0.tg_5.b gnd sky130_fd_pr__nfet_01v8 ad=0p pd=0u as=1.135e+13p ps=7.454e+07u w=5e+06u l=150000u
X21 ota_0.b ota_0.b ota_0.b vd sky130_fd_pr__pfet_01v8 ad=0p pd=0u as=0p ps=0u w=3e+06u l=150000u
X22 digpotp_0.tg_3.b c4 inn gnd sky130_fd_pr__nfet_01v8 ad=0p pd=0u as=0p ps=0u w=5e+06u l=150000u
X23 digpotp_0.tg_2.b c5 inn gnd sky130_fd_pr__nfet_01v8 ad=1.135e+13p pd=7.454e+07u as=0p ps=0u w=5e+06u l=150000u
X24 digpotp_0.tg_0.b c6 inn gnd sky130_fd_pr__nfet_01v8 ad=1.135e+13p pd=7.454e+07u as=0p ps=0u w=5e+06u l=150000u
X25 a_25964_6656# a_26282_8172# gnd sky130_fd_pr__res_xhigh_po_0p35 l=5.42e+06u
X26 vd ib out vd sky130_fd_pr__pfet_01v8 ad=0p pd=0u as=4.35e+12p ps=3.29e+07u w=3e+06u l=1e+06u
X27 inn c0 digpotp_0.tg_4.b gnd sky130_fd_pr__nfet_01v8 ad=0p pd=0u as=0p ps=0u w=5e+06u l=150000u
X28 gnd gnd gnd gnd sky130_fd_pr__nfet_01v8 ad=0p pd=0u as=0p ps=0u w=1e+06u l=1e+06u
X29 digpotp_0.tg_0.b digpotp_0.tg_0.nctrl inn vd sky130_fd_pr__pfet_01v8 ad=0p pd=0u as=0p ps=0u w=5e+06u l=150000u
X30 digpotp_0.tg_2.b digpotp_0.tg_2.nctrl inn vd sky130_fd_pr__pfet_01v8 ad=0p pd=0u as=0p ps=0u w=5e+06u l=150000u
X31 digpotp_0.tg_4.b digpotp_0.tg_4.nctrl inn vd sky130_fd_pr__pfet_01v8 ad=0p pd=0u as=0p ps=0u w=5e+06u l=150000u
X32 inn inn inn gnd sky130_fd_pr__nfet_01v8 ad=0p pd=0u as=0p ps=0u w=5e+06u l=150000u
X33 inn c4 digpotp_0.tg_3.b gnd sky130_fd_pr__nfet_01v8 ad=0p pd=0u as=0p ps=0u w=5e+06u l=150000u
X34 digpotp_0.tg_1.b digpotp_0.tg_1.nctrl inn vd sky130_fd_pr__pfet_01v8 ad=1.28e+13p pd=8.512e+07u as=0p ps=0u w=5e+06u l=150000u
X35 digpotp_0.tg_6.b digpotp_0.tg_6.b digpotp_0.tg_6.b vd sky130_fd_pr__pfet_01v8 ad=0p pd=0u as=0p ps=0u w=5e+06u l=150000u
X36 digpotp_0.tg_0.nctrl c6 gnd gnd sky130_fd_pr__nfet_01v8 ad=2.9e+11p pd=2.58e+06u as=0p ps=0u w=1e+06u l=150000u
X37 inn c1 digpotp_0.tg_7.b gnd sky130_fd_pr__nfet_01v8 ad=0p pd=0u as=1.135e+13p ps=7.454e+07u w=5e+06u l=150000u
X38 vd ib out vd sky130_fd_pr__pfet_01v8 ad=0p pd=0u as=0p ps=0u w=3e+06u l=1e+06u
X39 inn digpotp_0.tg_0.nctrl digpotp_0.tg_0.b vd sky130_fd_pr__pfet_01v8 ad=0p pd=0u as=0p ps=0u w=5e+06u l=150000u
X40 inn digpotp_0.tg_2.nctrl digpotp_0.tg_2.b vd sky130_fd_pr__pfet_01v8 ad=0p pd=0u as=0p ps=0u w=5e+06u l=150000u
X41 digpotp_0.tg_5.b digpotp_0.tg_5.nctrl inn vd sky130_fd_pr__pfet_01v8 ad=0p pd=0u as=0p ps=0u w=5e+06u l=150000u
X42 inn digpotp_0.tg_4.nctrl digpotp_0.tg_4.b vd sky130_fd_pr__pfet_01v8 ad=0p pd=0u as=0p ps=0u w=5e+06u l=150000u
X43 digpotp_0.tg_1.nctrl c7 gnd gnd sky130_fd_pr__nfet_01v8 ad=2.9e+11p pd=2.58e+06u as=0p ps=0u w=1e+06u l=150000u
X44 inn digpotp_0.tg_3.nctrl digpotp_0.tg_3.b vd sky130_fd_pr__pfet_01v8 ad=0p pd=0u as=0p ps=0u w=5e+06u l=150000u
X45 digpotp_0.tg_6.b c2 inn gnd sky130_fd_pr__nfet_01v8 ad=0p pd=0u as=0p ps=0u w=5e+06u l=150000u
X46 digpotp_0.tg_5.b c3 inn gnd sky130_fd_pr__nfet_01v8 ad=0p pd=0u as=0p ps=0u w=5e+06u l=150000u
X47 a_25934_4316# a_26252_5832# gnd sky130_fd_pr__res_xhigh_po_0p35 l=5.42e+06u
X48 inn digpotp_0.tg_6.nctrl digpotp_0.tg_6.b vd sky130_fd_pr__pfet_01v8 ad=0p pd=0u as=0p ps=0u w=5e+06u l=150000u
X49 inn c7 digpotp_0.tg_1.b gnd sky130_fd_pr__nfet_01v8 ad=0p pd=0u as=1.135e+13p ps=7.454e+07u w=5e+06u l=150000u
X50 digpotp_0.tg_1.nctrl c7 vd vd sky130_fd_pr__pfet_01v8 ad=8.7e+11p pd=6.58e+06u as=0p ps=0u w=3e+06u l=150000u
X51 digpotp_0.tg_0.nctrl c6 vd vd sky130_fd_pr__pfet_01v8 ad=8.7e+11p pd=6.58e+06u as=0p ps=0u w=3e+06u l=150000u
X52 gnd ota_0.d out gnd sky130_fd_pr__nfet_01v8 ad=0p pd=0u as=1.45e+12p ps=1.29e+07u w=1e+06u l=1e+06u
X53 digpotp_0.tg_1.b c7 inn gnd sky130_fd_pr__nfet_01v8 ad=0p pd=0u as=0p ps=0u w=5e+06u l=150000u
X54 digpotp_0.tg_4.b c0 inn gnd sky130_fd_pr__nfet_01v8 ad=0p pd=0u as=0p ps=0u w=5e+06u l=150000u
X55 inn c1 digpotp_0.tg_7.b gnd sky130_fd_pr__nfet_01v8 ad=0p pd=0u as=0p ps=0u w=5e+06u l=150000u
X56 gnd gnd gnd gnd sky130_fd_pr__nfet_01v8 ad=0p pd=0u as=0p ps=0u w=5e+06u l=150000u
X57 inn inn inn gnd sky130_fd_pr__nfet_01v8 ad=0p pd=0u as=0p ps=0u w=5e+06u l=150000u
X58 inn inn inn gnd sky130_fd_pr__nfet_01v8 ad=0p pd=0u as=0p ps=0u w=5e+06u l=150000u
X59 digpotp_0.tg_0.b c6 inn gnd sky130_fd_pr__nfet_01v8 ad=0p pd=0u as=0p ps=0u w=5e+06u l=150000u
X60 digpotp_0.tg_6.b digpotp_0.tg_6.nctrl inn vd sky130_fd_pr__pfet_01v8 ad=0p pd=0u as=0p ps=0u w=5e+06u l=150000u
X61 out ota_0.d gnd gnd sky130_fd_pr__nfet_01v8 ad=0p pd=0u as=0p ps=0u w=1e+06u l=1e+06u
X62 inn digpotp_0.tg_1.nctrl digpotp_0.tg_1.b vd sky130_fd_pr__pfet_01v8 ad=0p pd=0u as=0p ps=0u w=5e+06u l=150000u
X63 inn digpotp_0.tg_0.nctrl digpotp_0.tg_0.b vd sky130_fd_pr__pfet_01v8 ad=0p pd=0u as=0p ps=0u w=5e+06u l=150000u
X64 digpotp_0.tg_0.b digpotp_0.tg_0.b digpotp_0.tg_0.b vd sky130_fd_pr__pfet_01v8 ad=0p pd=0u as=0p ps=0u w=5e+06u l=150000u
X65 inn digpotp_0.tg_2.nctrl digpotp_0.tg_2.b vd sky130_fd_pr__pfet_01v8 ad=0p pd=0u as=0p ps=0u w=5e+06u l=150000u
X66 digpotp_0.tg_2.b digpotp_0.tg_2.b digpotp_0.tg_2.b vd sky130_fd_pr__pfet_01v8 ad=0p pd=0u as=0p ps=0u w=5e+06u l=150000u
X67 inn digpotp_0.tg_4.nctrl digpotp_0.tg_4.b vd sky130_fd_pr__pfet_01v8 ad=0p pd=0u as=0p ps=0u w=5e+06u l=150000u
X68 digpotp_0.tg_6.b c2 inn gnd sky130_fd_pr__nfet_01v8 ad=0p pd=0u as=0p ps=0u w=5e+06u l=150000u
X69 a_23434_4316# a_23752_5832# gnd sky130_fd_pr__res_xhigh_po_0p35 l=5.42e+06u
X70 inn digpotp_0.tg_7.nctrl digpotp_0.tg_7.b vd sky130_fd_pr__pfet_01v8 ad=0p pd=0u as=0p ps=0u w=5e+06u l=150000u
X71 gnd gnd gnd gnd sky130_fd_pr__nfet_01v8 ad=0p pd=0u as=0p ps=0u w=5e+06u l=150000u
X72 inn c3 digpotp_0.tg_5.b gnd sky130_fd_pr__nfet_01v8 ad=0p pd=0u as=0p ps=0u w=5e+06u l=150000u
X73 digpotp_0.tg_5.b digpotp_0.tg_5.nctrl inn vd sky130_fd_pr__pfet_01v8 ad=0p pd=0u as=0p ps=0u w=5e+06u l=150000u
X74 inn c2 digpotp_0.tg_6.b gnd sky130_fd_pr__nfet_01v8 ad=0p pd=0u as=0p ps=0u w=5e+06u l=150000u
X75 digpotp_0.tg_7.b digpotp_0.tg_7.nctrl inn vd sky130_fd_pr__pfet_01v8 ad=0p pd=0u as=0p ps=0u w=5e+06u l=150000u
X76 inn c0 digpotp_0.tg_4.b gnd sky130_fd_pr__nfet_01v8 ad=0p pd=0u as=0p ps=0u w=5e+06u l=150000u
X77 inn digpotp_0.tg_5.nctrl digpotp_0.tg_5.b vd sky130_fd_pr__pfet_01v8 ad=0p pd=0u as=0p ps=0u w=5e+06u l=150000u
X78 ota_0.b ib vd vd sky130_fd_pr__pfet_01v8 ad=0p pd=0u as=0p ps=0u w=3e+06u l=1e+06u
X79 digpotp_0.tg_0.b digpotp_0.tg_0.nctrl inn vd sky130_fd_pr__pfet_01v8 ad=0p pd=0u as=0p ps=0u w=5e+06u l=150000u
X80 digpotp_0.tg_2.b digpotp_0.tg_2.nctrl inn vd sky130_fd_pr__pfet_01v8 ad=0p pd=0u as=0p ps=0u w=5e+06u l=150000u
X81 inn digpotp_0.tg_6.nctrl digpotp_0.tg_6.b vd sky130_fd_pr__pfet_01v8 ad=0p pd=0u as=0p ps=0u w=5e+06u l=150000u
X82 digpotp_0.tg_7.b c1 inn gnd sky130_fd_pr__nfet_01v8 ad=0p pd=0u as=0p ps=0u w=5e+06u l=150000u
X83 a_26570_4316# a_26888_5832# gnd sky130_fd_pr__res_xhigh_po_0p35 l=5.42e+06u
X84 digpotp_0.tg_0.b digpotp_0.tg_0.nctrl inn vd sky130_fd_pr__pfet_01v8 ad=0p pd=0u as=0p ps=0u w=5e+06u l=150000u
X85 digpotp_0.tg_0.b c6 inn gnd sky130_fd_pr__nfet_01v8 ad=0p pd=0u as=0p ps=0u w=5e+06u l=150000u
X86 digpotp_0.tg_3.nctrl c4 gnd gnd sky130_fd_pr__nfet_01v8 ad=2.9e+11p pd=2.58e+06u as=0p ps=0u w=1e+06u l=150000u
X87 digpotp_0.tg_2.b c5 inn gnd sky130_fd_pr__nfet_01v8 ad=0p pd=0u as=0p ps=0u w=5e+06u l=150000u
X88 digpotp_0.tg_1.b digpotp_0.tg_1.nctrl inn vd sky130_fd_pr__pfet_01v8 ad=0p pd=0u as=0p ps=0u w=5e+06u l=150000u
X89 digpotp_0.tg_7.b digpotp_0.tg_7.nctrl inn vd sky130_fd_pr__pfet_01v8 ad=0p pd=0u as=0p ps=0u w=5e+06u l=150000u
X90 digpotp_0.tg_5.b c3 inn gnd sky130_fd_pr__nfet_01v8 ad=0p pd=0u as=0p ps=0u w=5e+06u l=150000u
X91 gnd gnd gnd gnd sky130_fd_pr__nfet_01v8 ad=0p pd=0u as=0p ps=0u w=5e+06u l=150000u
X92 inn c5 digpotp_0.tg_2.b gnd sky130_fd_pr__nfet_01v8 ad=0p pd=0u as=0p ps=0u w=5e+06u l=150000u
X93 digpotp_0.tg_3.nctrl c4 vd vd sky130_fd_pr__pfet_01v8 ad=8.7e+11p pd=6.58e+06u as=0p ps=0u w=3e+06u l=150000u
X94 inn digpotp_0.tg_5.nctrl digpotp_0.tg_5.b vd sky130_fd_pr__pfet_01v8 ad=0p pd=0u as=0p ps=0u w=5e+06u l=150000u
X95 inn c4 digpotp_0.tg_3.b gnd sky130_fd_pr__nfet_01v8 ad=0p pd=0u as=0p ps=0u w=5e+06u l=150000u
X96 inn digpotp_0.tg_7.nctrl digpotp_0.tg_7.b vd sky130_fd_pr__pfet_01v8 ad=0p pd=0u as=0p ps=0u w=5e+06u l=150000u
X97 vd vd vd vd sky130_fd_pr__pfet_01v8 ad=0p pd=0u as=0p ps=0u w=3e+06u l=1e+06u
X98 inn digpotp_0.tg_0.nctrl digpotp_0.tg_0.b vd sky130_fd_pr__pfet_01v8 ad=0p pd=0u as=0p ps=0u w=5e+06u l=150000u
X99 inn digpotp_0.tg_2.nctrl digpotp_0.tg_2.b vd sky130_fd_pr__pfet_01v8 ad=0p pd=0u as=0p ps=0u w=5e+06u l=150000u
X100 inn digpotp_0.tg_4.nctrl digpotp_0.tg_4.b vd sky130_fd_pr__pfet_01v8 ad=0p pd=0u as=0p ps=0u w=5e+06u l=150000u
X101 digpotp_0.tg_3.b c4 inn gnd sky130_fd_pr__nfet_01v8 ad=0p pd=0u as=0p ps=0u w=5e+06u l=150000u
X102 a_26570_4316# a_26252_5832# gnd sky130_fd_pr__res_xhigh_po_0p35 l=5.42e+06u
X103 gnd gnd gnd gnd sky130_fd_pr__nfet_01v8 ad=0p pd=0u as=0p ps=0u w=5e+06u l=150000u
X104 vd ib out vd sky130_fd_pr__pfet_01v8 ad=0p pd=0u as=0p ps=0u w=3e+06u l=1e+06u
X105 inn digpotp_0.tg_3.nctrl digpotp_0.tg_3.b vd sky130_fd_pr__pfet_01v8 ad=0p pd=0u as=0p ps=0u w=5e+06u l=150000u
X106 inn c5 digpotp_0.tg_2.b gnd sky130_fd_pr__nfet_01v8 ad=0p pd=0u as=0p ps=0u w=5e+06u l=150000u
X107 digpotp_0.n8 a_20016_5832# gnd sky130_fd_pr__res_xhigh_po_0p35 l=5.42e+06u
X108 out ib vd vd sky130_fd_pr__pfet_01v8 ad=0p pd=0u as=0p ps=0u w=3e+06u l=1e+06u
X109 inn c7 digpotp_0.tg_1.b gnd sky130_fd_pr__nfet_01v8 ad=0p pd=0u as=0p ps=0u w=5e+06u l=150000u
X110 inn c6 digpotp_0.tg_0.b gnd sky130_fd_pr__nfet_01v8 ad=0p pd=0u as=0p ps=0u w=5e+06u l=150000u
X111 inn inn inn gnd sky130_fd_pr__nfet_01v8 ad=0p pd=0u as=0p ps=0u w=5e+06u l=150000u
X112 inn c3 digpotp_0.tg_5.b gnd sky130_fd_pr__nfet_01v8 ad=0p pd=0u as=0p ps=0u w=5e+06u l=150000u
X113 gnd ota_0.d out gnd sky130_fd_pr__nfet_01v8 ad=0p pd=0u as=0p ps=0u w=1e+06u l=1e+06u
X114 out a_25646_8172# gnd sky130_fd_pr__res_xhigh_po_0p35 l=5.42e+06u
X115 digpotp_0.tg_6.b digpotp_0.tg_6.nctrl inn vd sky130_fd_pr__pfet_01v8 ad=0p pd=0u as=0p ps=0u w=5e+06u l=150000u
X116 digpotp_0.tg_7.b digpotp_0.tg_7.b digpotp_0.tg_7.b vd sky130_fd_pr__pfet_01v8 ad=0p pd=0u as=0p ps=0u w=5e+06u l=150000u
X117 gnd ota_0.d out gnd sky130_fd_pr__nfet_01v8 ad=0p pd=0u as=0p ps=0u w=1e+06u l=1e+06u
X118 digpotp_0.tg_1.b c7 inn gnd sky130_fd_pr__nfet_01v8 ad=0p pd=0u as=0p ps=0u w=5e+06u l=150000u
X119 digpotp_0.tg_4.b c0 inn gnd sky130_fd_pr__nfet_01v8 ad=0p pd=0u as=0p ps=0u w=5e+06u l=150000u
X120 ib ib vd vd sky130_fd_pr__pfet_01v8 ad=8.7e+11p pd=6.58e+06u as=0p ps=0u w=3e+06u l=1e+06u
X121 out ota_0.d gnd gnd sky130_fd_pr__nfet_01v8 ad=0p pd=0u as=0p ps=0u w=1e+06u l=1e+06u
X122 digpotp_0.tg_7.b c1 inn gnd sky130_fd_pr__nfet_01v8 ad=0p pd=0u as=0p ps=0u w=5e+06u l=150000u
X123 digpotp_0.tg_6.nctrl c2 gnd gnd sky130_fd_pr__nfet_01v8 ad=2.9e+11p pd=2.58e+06u as=0p ps=0u w=1e+06u l=150000u
X124 out ib vd vd sky130_fd_pr__pfet_01v8 ad=0p pd=0u as=0p ps=0u w=3e+06u l=1e+06u
X125 digpotp_0.tg_1.b digpotp_0.tg_1.nctrl inn vd sky130_fd_pr__pfet_01v8 ad=0p pd=0u as=0p ps=0u w=5e+06u l=150000u
X126 digpotp_0.tg_0.b digpotp_0.tg_0.nctrl inn vd sky130_fd_pr__pfet_01v8 ad=0p pd=0u as=0p ps=0u w=5e+06u l=150000u
X127 digpotp_0.tg_2.b digpotp_0.tg_2.nctrl inn vd sky130_fd_pr__pfet_01v8 ad=0p pd=0u as=0p ps=0u w=5e+06u l=150000u
X128 digpotp_0.tg_4.b digpotp_0.tg_4.nctrl inn vd sky130_fd_pr__pfet_01v8 ad=0p pd=0u as=0p ps=0u w=5e+06u l=150000u
X129 digpotp_0.tg_3.b digpotp_0.tg_3.nctrl inn vd sky130_fd_pr__pfet_01v8 ad=0p pd=0u as=0p ps=0u w=5e+06u l=150000u
X130 inn c2 digpotp_0.tg_6.b gnd sky130_fd_pr__nfet_01v8 ad=0p pd=0u as=0p ps=0u w=5e+06u l=150000u
X131 digpotp_0.tg_6.nctrl c2 vd vd sky130_fd_pr__pfet_01v8 ad=8.7e+11p pd=6.58e+06u as=0p ps=0u w=3e+06u l=150000u
X132 digpotp_0.tg_4.nctrl c0 gnd gnd sky130_fd_pr__nfet_01v8 ad=2.9e+11p pd=2.58e+06u as=0p ps=0u w=1e+06u l=150000u
X133 digpotp_0.tg_7.b digpotp_0.tg_7.nctrl inn vd sky130_fd_pr__pfet_01v8 ad=0p pd=0u as=0p ps=0u w=5e+06u l=150000u
X134 inn digpotp_0.tg_4.nctrl digpotp_0.tg_4.b vd sky130_fd_pr__pfet_01v8 ad=0p pd=0u as=0p ps=0u w=5e+06u l=150000u
X135 digpotp_0.n8 a_25616_5832# gnd sky130_fd_pr__res_xhigh_po_0p35 l=5.42e+06u
X136 inn digpotp_0.tg_5.nctrl digpotp_0.tg_5.b vd sky130_fd_pr__pfet_01v8 ad=0p pd=0u as=0p ps=0u w=5e+06u l=150000u
X137 digpotp_0.tg_6.b c2 inn gnd sky130_fd_pr__nfet_01v8 ad=0p pd=0u as=0p ps=0u w=5e+06u l=150000u
X138 gnd gnd gnd gnd sky130_fd_pr__nfet_01v8 ad=0p pd=0u as=0p ps=0u w=5e+06u l=150000u
X139 digpotp_0.tg_1.b digpotp_0.n8 gnd sky130_fd_pr__res_high_po_0p35 l=1e+06u
X140 digpotp_0.tg_7.b c1 inn gnd sky130_fd_pr__nfet_01v8 ad=0p pd=0u as=0p ps=0u w=5e+06u l=150000u
X141 inn digpotp_0.tg_6.nctrl digpotp_0.tg_6.b vd sky130_fd_pr__pfet_01v8 ad=0p pd=0u as=0p ps=0u w=5e+06u l=150000u
X142 digpotp_0.tg_4.nctrl c0 vd vd sky130_fd_pr__pfet_01v8 ad=8.7e+11p pd=6.58e+06u as=0p ps=0u w=3e+06u l=150000u
X143 a_27236_6656# a_26918_8172# gnd sky130_fd_pr__res_xhigh_po_0p35 l=5.42e+06u
X144 digpotp_0.tg_2.nctrl c5 gnd gnd sky130_fd_pr__nfet_01v8 ad=2.9e+11p pd=2.58e+06u as=0p ps=0u w=1e+06u l=150000u
X145 digpotp_0.tg_0.b digpotp_0.n8 gnd sky130_fd_pr__res_xhigh_po_0p35 l=520000u
X146 digpotp_0.tg_2.b digpotp_0.n8 gnd sky130_fd_pr__res_xhigh_po_0p35 l=1.22e+06u
X147 digpotp_0.tg_1.b digpotp_0.tg_1.nctrl inn vd sky130_fd_pr__pfet_01v8 ad=0p pd=0u as=0p ps=0u w=5e+06u l=150000u
X148 inn c1 digpotp_0.tg_7.b gnd sky130_fd_pr__nfet_01v8 ad=0p pd=0u as=0p ps=0u w=5e+06u l=150000u
X149 inn inn inn gnd sky130_fd_pr__nfet_01v8 ad=0p pd=0u as=0p ps=0u w=5e+06u l=150000u
X150 inn digpotp_0.tg_0.nctrl digpotp_0.tg_0.b vd sky130_fd_pr__pfet_01v8 ad=0p pd=0u as=0p ps=0u w=5e+06u l=150000u
X151 inn digpotp_0.tg_4.nctrl digpotp_0.tg_4.b vd sky130_fd_pr__pfet_01v8 ad=0p pd=0u as=0p ps=0u w=5e+06u l=150000u
X152 inn c6 digpotp_0.tg_0.b gnd sky130_fd_pr__nfet_01v8 ad=0p pd=0u as=0p ps=0u w=5e+06u l=150000u
X153 digpotp_0.tg_5.b c3 inn gnd sky130_fd_pr__nfet_01v8 ad=0p pd=0u as=0p ps=0u w=5e+06u l=150000u
X154 inn c5 digpotp_0.tg_2.b gnd sky130_fd_pr__nfet_01v8 ad=0p pd=0u as=0p ps=0u w=5e+06u l=150000u
X155 inn digpotp_0.tg_1.nctrl digpotp_0.tg_1.b vd sky130_fd_pr__pfet_01v8 ad=0p pd=0u as=0p ps=0u w=5e+06u l=150000u
X156 digpotp_0.tg_2.nctrl c5 vd vd sky130_fd_pr__pfet_01v8 ad=8.7e+11p pd=6.58e+06u as=0p ps=0u w=3e+06u l=150000u
X157 digpotp_0.tg_4.b digpotp_0.tg_4.b digpotp_0.tg_4.b vd sky130_fd_pr__pfet_01v8 ad=0p pd=0u as=0p ps=0u w=5e+06u l=150000u
X158 inn c4 digpotp_0.tg_3.b gnd sky130_fd_pr__nfet_01v8 ad=0p pd=0u as=0p ps=0u w=5e+06u l=150000u
X159 vd vd vd vd sky130_fd_pr__pfet_01v8 ad=0p pd=0u as=0p ps=0u w=3e+06u l=1e+06u
X160 inn digpotp_0.tg_7.nctrl digpotp_0.tg_7.b vd sky130_fd_pr__pfet_01v8 ad=0p pd=0u as=0p ps=0u w=5e+06u l=150000u
X161 digpotp_0.tg_2.b c5 inn gnd sky130_fd_pr__nfet_01v8 ad=0p pd=0u as=0p ps=0u w=5e+06u l=150000u
X162 digpotp_0.tg_5.b digpotp_0.tg_5.nctrl inn vd sky130_fd_pr__pfet_01v8 ad=0p pd=0u as=0p ps=0u w=5e+06u l=150000u
X163 digpotp_0.tg_3.b c4 inn gnd sky130_fd_pr__nfet_01v8 ad=0p pd=0u as=0p ps=0u w=5e+06u l=150000u
X164 a_27206_4316# a_26888_5832# gnd sky130_fd_pr__res_xhigh_po_0p35 l=5.42e+06u
X165 digpotp_0.tg_6.b digpotp_0.tg_6.nctrl inn vd sky130_fd_pr__pfet_01v8 ad=0p pd=0u as=0p ps=0u w=5e+06u l=150000u
X166 inn c1 digpotp_0.tg_7.b gnd sky130_fd_pr__nfet_01v8 ad=0p pd=0u as=0p ps=0u w=5e+06u l=150000u
X167 digpotp_0.tg_6.b a_20016_5832# gnd sky130_fd_pr__res_xhigh_po_0p35 l=5.42e+06u
X168 digpotp_0.tg_5.nctrl c3 gnd gnd sky130_fd_pr__nfet_01v8 ad=2.9e+11p pd=2.58e+06u as=0p ps=0u w=1e+06u l=150000u
X169 ota_0.c digpotp_0.n8 ota_0.b vd sky130_fd_pr__pfet_01v8 ad=1.92e+12p pd=1.328e+07u as=0p ps=0u w=3e+06u l=150000u
X170 inn digpotp_0.tg_5.nctrl digpotp_0.tg_5.b vd sky130_fd_pr__pfet_01v8 ad=0p pd=0u as=0p ps=0u w=5e+06u l=150000u
X171 a_25964_6656# a_25646_8172# gnd sky130_fd_pr__res_xhigh_po_0p35 l=5.42e+06u
X172 digpotp_0.tg_3.b digpotp_0.tg_3.nctrl inn vd sky130_fd_pr__pfet_01v8 ad=0p pd=0u as=0p ps=0u w=5e+06u l=150000u
X173 digpotp_0.tg_4.b digpotp_0.tg_4.nctrl inn vd sky130_fd_pr__pfet_01v8 ad=0p pd=0u as=0p ps=0u w=5e+06u l=150000u
X174 digpotp_0.tg_2.b c5 inn gnd sky130_fd_pr__nfet_01v8 ad=0p pd=0u as=0p ps=0u w=5e+06u l=150000u
X175 digpotp_0.tg_5.nctrl c3 vd vd sky130_fd_pr__pfet_01v8 ad=8.7e+11p pd=6.58e+06u as=0p ps=0u w=3e+06u l=150000u
X176 digpotp_0.tg_1.b c7 inn gnd sky130_fd_pr__nfet_01v8 ad=0p pd=0u as=0p ps=0u w=5e+06u l=150000u
X177 digpotp_0.tg_0.b c6 inn gnd sky130_fd_pr__nfet_01v8 ad=0p pd=0u as=0p ps=0u w=5e+06u l=150000u
X178 digpotp_0.tg_4.b c0 inn gnd sky130_fd_pr__nfet_01v8 ad=0p pd=0u as=0p ps=0u w=5e+06u l=150000u
X179 ota_0.b inp ota_0.d vd sky130_fd_pr__pfet_01v8 ad=0p pd=0u as=0p ps=0u w=3e+06u l=150000u
X180 vd ib ib vd sky130_fd_pr__pfet_01v8 ad=0p pd=0u as=0p ps=0u w=3e+06u l=1e+06u
X181 digpotp_0.tg_7.b digpotp_0.tg_7.nctrl inn vd sky130_fd_pr__pfet_01v8 ad=0p pd=0u as=0p ps=0u w=5e+06u l=150000u
X182 inn inn inn gnd sky130_fd_pr__nfet_01v8 ad=0p pd=0u as=0p ps=0u w=5e+06u l=150000u
X183 inn c7 digpotp_0.tg_1.b gnd sky130_fd_pr__nfet_01v8 ad=0p pd=0u as=0p ps=0u w=5e+06u l=150000u
X184 inn c0 digpotp_0.tg_4.b gnd sky130_fd_pr__nfet_01v8 ad=0p pd=0u as=0p ps=0u w=5e+06u l=150000u
X185 inn c4 digpotp_0.tg_3.b gnd sky130_fd_pr__nfet_01v8 ad=0p pd=0u as=0p ps=0u w=5e+06u l=150000u
X186 digpotp_0.tg_2.b digpotp_0.tg_2.nctrl inn vd sky130_fd_pr__pfet_01v8 ad=0p pd=0u as=0p ps=0u w=5e+06u l=150000u
X187 inn digpotp_0.tg_5.nctrl digpotp_0.tg_5.b vd sky130_fd_pr__pfet_01v8 ad=0p pd=0u as=0p ps=0u w=5e+06u l=150000u
X188 digpotp_0.tg_5.b digpotp_0.tg_5.b digpotp_0.tg_5.b vd sky130_fd_pr__pfet_01v8 ad=0p pd=0u as=0p ps=0u w=5e+06u l=150000u
X189 gnd gnd gnd gnd sky130_fd_pr__nfet_01v8 ad=0p pd=0u as=0p ps=0u w=1e+06u l=1e+06u
X190 digpotp_0.tg_3.b digpotp_0.tg_3.nctrl inn vd sky130_fd_pr__pfet_01v8 ad=0p pd=0u as=0p ps=0u w=5e+06u l=150000u
X191 digpotp_0.tg_3.b digpotp_0.n8 gnd sky130_fd_pr__res_xhigh_po_0p35 l=2.62e+06u
X192 inn c2 digpotp_0.tg_6.b gnd sky130_fd_pr__nfet_01v8 ad=0p pd=0u as=0p ps=0u w=5e+06u l=150000u
X193 a_25934_4316# a_25616_5832# gnd sky130_fd_pr__res_xhigh_po_0p35 l=5.42e+06u
X194 inn digpotp_0.tg_4.nctrl digpotp_0.tg_4.b vd sky130_fd_pr__pfet_01v8 ad=0p pd=0u as=0p ps=0u w=5e+06u l=150000u
X195 inn digpotp_0.tg_3.nctrl digpotp_0.tg_3.b vd sky130_fd_pr__pfet_01v8 ad=0p pd=0u as=0p ps=0u w=5e+06u l=150000u
X196 a_27236_6656# a_27554_8172# gnd sky130_fd_pr__res_xhigh_po_0p35 l=5.42e+06u
X197 vd vd vd vd sky130_fd_pr__pfet_01v8 ad=0p pd=0u as=0p ps=0u w=5e+06u l=150000u
X198 vd vd vd vd sky130_fd_pr__pfet_01v8 ad=0p pd=0u as=0p ps=0u w=5e+06u l=150000u
X199 vd vd vd vd sky130_fd_pr__pfet_01v8 ad=0p pd=0u as=0p ps=0u w=5e+06u l=150000u
X200 digpotp_0.tg_7.nctrl c1 gnd gnd sky130_fd_pr__nfet_01v8 ad=2.9e+11p pd=2.58e+06u as=0p ps=0u w=1e+06u l=150000u
X201 digpotp_0.tg_6.b c2 inn gnd sky130_fd_pr__nfet_01v8 ad=0p pd=0u as=0p ps=0u w=5e+06u l=150000u
X202 inn c7 digpotp_0.tg_1.b gnd sky130_fd_pr__nfet_01v8 ad=0p pd=0u as=0p ps=0u w=5e+06u l=150000u
X203 inn c0 digpotp_0.tg_4.b gnd sky130_fd_pr__nfet_01v8 ad=0p pd=0u as=0p ps=0u w=5e+06u l=150000u
X204 inn c6 digpotp_0.tg_0.b gnd sky130_fd_pr__nfet_01v8 ad=0p pd=0u as=0p ps=0u w=5e+06u l=150000u
X205 digpotp_0.tg_5.b digpotp_0.tg_5.nctrl inn vd sky130_fd_pr__pfet_01v8 ad=0p pd=0u as=0p ps=0u w=5e+06u l=150000u
X206 inn c1 digpotp_0.tg_7.b gnd sky130_fd_pr__nfet_01v8 ad=0p pd=0u as=0p ps=0u w=5e+06u l=150000u
X207 digpotp_0.tg_6.b digpotp_0.tg_6.nctrl inn vd sky130_fd_pr__pfet_01v8 ad=0p pd=0u as=0p ps=0u w=5e+06u l=150000u
X208 digpotp_0.tg_7.nctrl c1 vd vd sky130_fd_pr__pfet_01v8 ad=8.7e+11p pd=6.58e+06u as=0p ps=0u w=3e+06u l=150000u
X209 out ota_0.d gnd gnd sky130_fd_pr__nfet_01v8 ad=0p pd=0u as=0p ps=0u w=1e+06u l=1e+06u
X210 digpotp_0.tg_5.b c3 inn gnd sky130_fd_pr__nfet_01v8 ad=0p pd=0u as=0p ps=0u w=5e+06u l=150000u
X211 inn digpotp_0.tg_1.nctrl digpotp_0.tg_1.b vd sky130_fd_pr__pfet_01v8 ad=0p pd=0u as=0p ps=0u w=5e+06u l=150000u
X212 digpotp_0.tg_7.b c1 inn gnd sky130_fd_pr__nfet_01v8 ad=0p pd=0u as=0p ps=0u w=5e+06u l=150000u
X213 out ota_0.d sky130_fd_pr__cap_mim_m3_1 l=1.4e+07u w=2.4e+07u
X214 ota_0.b ib vd vd sky130_fd_pr__pfet_01v8 ad=0p pd=0u as=0p ps=0u w=3e+06u l=1e+06u
X215 digpotp_0.tg_0.b digpotp_0.tg_0.nctrl inn vd sky130_fd_pr__pfet_01v8 ad=0p pd=0u as=0p ps=0u w=5e+06u l=150000u
X216 inn digpotp_0.tg_7.nctrl digpotp_0.tg_7.b vd sky130_fd_pr__pfet_01v8 ad=0p pd=0u as=0p ps=0u w=5e+06u l=150000u
X217 gnd ota_0.c ota_0.c gnd sky130_fd_pr__nfet_01v8 ad=0p pd=0u as=2.9e+11p ps=2.58e+06u w=1e+06u l=1e+06u
X218 inn c3 digpotp_0.tg_5.b gnd sky130_fd_pr__nfet_01v8 ad=0p pd=0u as=0p ps=0u w=5e+06u l=150000u
X219 a_27206_4316# a_27524_5832# gnd sky130_fd_pr__res_xhigh_po_0p35 l=5.42e+06u
X220 digpotp_0.tg_1.b digpotp_0.tg_1.nctrl inn vd sky130_fd_pr__pfet_01v8 ad=0p pd=0u as=0p ps=0u w=5e+06u l=150000u
X221 digpotp_0.tg_4.b digpotp_0.tg_4.nctrl inn vd sky130_fd_pr__pfet_01v8 ad=0p pd=0u as=0p ps=0u w=5e+06u l=150000u
X222 digpotp_0.tg_0.b c6 inn gnd sky130_fd_pr__nfet_01v8 ad=0p pd=0u as=0p ps=0u w=5e+06u l=150000u
X223 digpotp_0.tg_3.b c4 inn gnd sky130_fd_pr__nfet_01v8 ad=0p pd=0u as=0p ps=0u w=5e+06u l=150000u
X224 digpotp_0.tg_2.b c5 inn gnd sky130_fd_pr__nfet_01v8 ad=0p pd=0u as=0p ps=0u w=5e+06u l=150000u
X225 digpotp_0.tg_7.b a_23752_5832# gnd sky130_fd_pr__res_xhigh_po_0p35 l=5.42e+06u
X226 digpotp_0.tg_6.b digpotp_0.tg_6.nctrl inn vd sky130_fd_pr__pfet_01v8 ad=0p pd=0u as=0p ps=0u w=5e+06u l=150000u
X227 ota_0.d ota_0.c gnd gnd sky130_fd_pr__nfet_01v8 ad=2.9e+11p pd=2.58e+06u as=0p ps=0u w=1e+06u l=1e+06u
X228 digpotp_0.tg_1.b c7 inn gnd sky130_fd_pr__nfet_01v8 ad=0p pd=0u as=0p ps=0u w=5e+06u l=150000u
X229 inn digpotp_0.tg_5.nctrl digpotp_0.tg_5.b vd sky130_fd_pr__pfet_01v8 ad=0p pd=0u as=0p ps=0u w=5e+06u l=150000u
X230 inn c4 digpotp_0.tg_3.b gnd sky130_fd_pr__nfet_01v8 ad=0p pd=0u as=0p ps=0u w=5e+06u l=150000u
X231 inn digpotp_0.tg_6.nctrl digpotp_0.tg_6.b vd sky130_fd_pr__pfet_01v8 ad=0p pd=0u as=0p ps=0u w=5e+06u l=150000u
X232 digpotp_0.tg_7.b c1 inn gnd sky130_fd_pr__nfet_01v8 ad=0p pd=0u as=0p ps=0u w=5e+06u l=150000u
X233 inn c3 digpotp_0.tg_5.b gnd sky130_fd_pr__nfet_01v8 ad=0p pd=0u as=0p ps=0u w=5e+06u l=150000u
X234 ota_0.b digpotp_0.n8 ota_0.c vd sky130_fd_pr__pfet_01v8 ad=0p pd=0u as=0p ps=0u w=3e+06u l=150000u
X235 inn digpotp_0.tg_1.nctrl digpotp_0.tg_1.b vd sky130_fd_pr__pfet_01v8 ad=0p pd=0u as=0p ps=0u w=5e+06u l=150000u
X236 vd vd vd vd sky130_fd_pr__pfet_01v8 ad=0p pd=0u as=0p ps=0u w=5e+06u l=150000u
X237 digpotp_0.tg_7.b digpotp_0.tg_7.nctrl inn vd sky130_fd_pr__pfet_01v8 ad=0p pd=0u as=0p ps=0u w=5e+06u l=150000u
X238 inn c7 digpotp_0.tg_1.b gnd sky130_fd_pr__nfet_01v8 ad=0p pd=0u as=0p ps=0u w=5e+06u l=150000u
X239 inn c6 digpotp_0.tg_0.b gnd sky130_fd_pr__nfet_01v8 ad=0p pd=0u as=0p ps=0u w=5e+06u l=150000u
X240 inn c0 digpotp_0.tg_4.b gnd sky130_fd_pr__nfet_01v8 ad=0p pd=0u as=0p ps=0u w=5e+06u l=150000u
X241 inn c5 digpotp_0.tg_2.b gnd sky130_fd_pr__nfet_01v8 ad=0p pd=0u as=0p ps=0u w=5e+06u l=150000u
X242 ota_0.d inp ota_0.b vd sky130_fd_pr__pfet_01v8 ad=0p pd=0u as=0p ps=0u w=3e+06u l=150000u
X243 digpotp_0.tg_2.b digpotp_0.tg_2.nctrl inn vd sky130_fd_pr__pfet_01v8 ad=0p pd=0u as=0p ps=0u w=5e+06u l=150000u
X244 inn c4 digpotp_0.tg_3.b gnd sky130_fd_pr__nfet_01v8 ad=0p pd=0u as=0p ps=0u w=5e+06u l=150000u
X245 digpotp_0.tg_0.b digpotp_0.tg_0.nctrl inn vd sky130_fd_pr__pfet_01v8 ad=0p pd=0u as=0p ps=0u w=5e+06u l=150000u
X246 digpotp_0.tg_4.b c0 inn gnd sky130_fd_pr__nfet_01v8 ad=0p pd=0u as=0p ps=0u w=5e+06u l=150000u
X247 digpotp_0.tg_5.b digpotp_0.tg_5.nctrl inn vd sky130_fd_pr__pfet_01v8 ad=0p pd=0u as=0p ps=0u w=5e+06u l=150000u
X248 vd vd vd vd sky130_fd_pr__pfet_01v8 ad=0p pd=0u as=0p ps=0u w=5e+06u l=150000u
X249 digpotp_0.n8 a_27554_8172# gnd sky130_fd_pr__res_xhigh_po_0p35 l=5.42e+06u
X250 vd ib out vd sky130_fd_pr__pfet_01v8 ad=0p pd=0u as=0p ps=0u w=3e+06u l=1e+06u
X251 inn digpotp_0.tg_2.nctrl digpotp_0.tg_2.b vd sky130_fd_pr__pfet_01v8 ad=0p pd=0u as=0p ps=0u w=5e+06u l=150000u
X252 inn digpotp_0.tg_3.nctrl digpotp_0.tg_3.b vd sky130_fd_pr__pfet_01v8 ad=0p pd=0u as=0p ps=0u w=5e+06u l=150000u
X253 digpotp_0.n8 a_23116_5832# gnd sky130_fd_pr__res_xhigh_po_0p35 l=5.42e+06u
X254 inn inn inn gnd sky130_fd_pr__nfet_01v8 ad=0p pd=0u as=0p ps=0u w=5e+06u l=150000u
X255 digpotp_0.tg_6.b c2 inn gnd sky130_fd_pr__nfet_01v8 ad=0p pd=0u as=0p ps=0u w=5e+06u l=150000u
X256 out ib vd vd sky130_fd_pr__pfet_01v8 ad=0p pd=0u as=0p ps=0u w=3e+06u l=1e+06u
X257 out ib vd vd sky130_fd_pr__pfet_01v8 ad=0p pd=0u as=0p ps=0u w=3e+06u l=1e+06u
X258 digpotp_0.tg_1.b digpotp_0.tg_1.b digpotp_0.tg_1.b vd sky130_fd_pr__pfet_01v8 ad=0p pd=0u as=0p ps=0u w=5e+06u l=150000u
X259 digpotp_0.tg_3.b digpotp_0.tg_3.nctrl inn vd sky130_fd_pr__pfet_01v8 ad=0p pd=0u as=0p ps=0u w=5e+06u l=150000u
X260 inn c2 digpotp_0.tg_6.b gnd sky130_fd_pr__nfet_01v8 ad=0p pd=0u as=0p ps=0u w=5e+06u l=150000u
X261 ota_0.b ota_0.b ota_0.b vd sky130_fd_pr__pfet_01v8 ad=0p pd=0u as=0p ps=0u w=3e+06u l=150000u
X262 gnd ota_0.d out gnd sky130_fd_pr__nfet_01v8 ad=0p pd=0u as=0p ps=0u w=1e+06u l=1e+06u
X263 digpotp_0.tg_0.b c6 inn gnd sky130_fd_pr__nfet_01v8 ad=0p pd=0u as=0p ps=0u w=5e+06u l=150000u
X264 digpotp_0.tg_4.b c0 inn gnd sky130_fd_pr__nfet_01v8 ad=0p pd=0u as=0p ps=0u w=5e+06u l=150000u
X265 digpotp_0.tg_2.b c5 inn gnd sky130_fd_pr__nfet_01v8 ad=0p pd=0u as=0p ps=0u w=5e+06u l=150000u
X266 digpotp_0.tg_1.b c7 inn gnd sky130_fd_pr__nfet_01v8 ad=0p pd=0u as=0p ps=0u w=5e+06u l=150000u
X267 digpotp_0.tg_3.b c4 inn gnd sky130_fd_pr__nfet_01v8 ad=0p pd=0u as=0p ps=0u w=5e+06u l=150000u
X268 digpotp_0.tg_5.b digpotp_0.n8 gnd sky130_fd_pr__res_xhigh_po_0p35 l=5.42e+06u
X269 vd ib out vd sky130_fd_pr__pfet_01v8 ad=0p pd=0u as=0p ps=0u w=3e+06u l=1e+06u
X270 inn digpotp_0.tg_1.nctrl digpotp_0.tg_1.b vd sky130_fd_pr__pfet_01v8 ad=0p pd=0u as=0p ps=0u w=5e+06u l=150000u
X271 inn digpotp_0.tg_0.nctrl digpotp_0.tg_0.b vd sky130_fd_pr__pfet_01v8 ad=0p pd=0u as=0p ps=0u w=5e+06u l=150000u
X272 inn digpotp_0.tg_2.nctrl digpotp_0.tg_2.b vd sky130_fd_pr__pfet_01v8 ad=0p pd=0u as=0p ps=0u w=5e+06u l=150000u
X273 out ota_0.d gnd gnd sky130_fd_pr__nfet_01v8 ad=0p pd=0u as=0p ps=0u w=1e+06u l=1e+06u
X274 digpotp_0.tg_7.b c1 inn gnd sky130_fd_pr__nfet_01v8 ad=0p pd=0u as=0p ps=0u w=5e+06u l=150000u
X275 digpotp_0.tg_4.b a_27524_5832# gnd sky130_fd_pr__res_xhigh_po_0p35 l=5.42e+06u
X276 out ib vd vd sky130_fd_pr__pfet_01v8 ad=0p pd=0u as=0p ps=0u w=3e+06u l=1e+06u
X277 inn c3 digpotp_0.tg_5.b gnd sky130_fd_pr__nfet_01v8 ad=0p pd=0u as=0p ps=0u w=5e+06u l=150000u
X278 vd vd vd vd sky130_fd_pr__pfet_01v8 ad=0p pd=0u as=0p ps=0u w=5e+06u l=150000u
X279 digpotp_0.tg_4.b digpotp_0.tg_4.nctrl inn vd sky130_fd_pr__pfet_01v8 ad=0p pd=0u as=0p ps=0u w=5e+06u l=150000u
X280 gnd ota_0.d out gnd sky130_fd_pr__nfet_01v8 ad=0p pd=0u as=0p ps=0u w=1e+06u l=1e+06u
X281 digpotp_0.tg_1.b digpotp_0.tg_1.nctrl inn vd sky130_fd_pr__pfet_01v8 ad=0p pd=0u as=0p ps=0u w=5e+06u l=150000u
X282 digpotp_0.tg_3.b digpotp_0.tg_3.nctrl inn vd sky130_fd_pr__pfet_01v8 ad=0p pd=0u as=0p ps=0u w=5e+06u l=150000u
X283 inn c2 digpotp_0.tg_6.b gnd sky130_fd_pr__nfet_01v8 ad=0p pd=0u as=0p ps=0u w=5e+06u l=150000u
X284 digpotp_0.tg_5.b c3 inn gnd sky130_fd_pr__nfet_01v8 ad=0p pd=0u as=0p ps=0u w=5e+06u l=150000u
X285 vd ib ota_0.b vd sky130_fd_pr__pfet_01v8 ad=0p pd=0u as=0p ps=0u w=3e+06u l=1e+06u
X286 digpotp_0.tg_1.b c7 inn gnd sky130_fd_pr__nfet_01v8 ad=0p pd=0u as=0p ps=0u w=5e+06u l=150000u